
 + + + + + + + + + + + + + + + + + + + + + + + + + + + + + + + + + + + + + + + +
 + + + + + + + + + + + + + + + + + + + + + + + + + + + + + + + + + + + + + + + +
 + +                                                                         + +
 + +                      ASPEN PLUS CALCULATION HISTORY                     + +
 + +                                                                         + +
 + + + + + + + + + + + + + + + + + + + + + + + + + + + + + + + + + + + + + + + +
 + + + + + + + + + + + + + + + + + + + + + + + + + + + + + + + + + + + + + + + +

 ASPEN PLUS IS A TRADEMARK OF           HOTLINE:
 ASPEN TECHNOLOGY, INC.                 U.S.A. 888/996-7100
 781/221-6400                           EUROPE (44) 1189-226555

 PLATFORM: WIN-X64                                       MARCH 12, 2025      
 VERSION: 40.0   Build 359                               WEDNESDAY   
 INSTALLATION:                                           7:52:37 P.M.        

 THIS COPY OF ASPEN PLUS LICENSED TO TECHNISCHE UNIVERSITEIT         


      ASPEN PLUS (R) IS A PROPRIETARY PRODUCT OF ASPEN TECHNOLOGY, INC.
      (ASPENTECH), AND MAY BE USED ONLY UNDER AGREEMENT WITH ASPENTECH.
      RESTRICTED RIGHTS LEGEND:  USE, REPRODUCTION, OR DISCLOSURE BY THE
      U.S. GOVERNMENT IS SUBJECT TO RESTRICTIONS SET FORTH IN 
      (i) FAR 52.227-14, Alt. III, (ii) FAR 52.227-19, (iii) DFARS 
      252.227-7013(c)(1)(ii), or (iv) THE ACCOMPANYING LICENSE AGREEMENT,
      AS APPLICABLE. FOR PURPOSES OF THE FAR, THIS SOFTWARE SHALL BE DEEMED
      TO BE "UNPUBLISHED" AND LICENSED WITH DISCLOSURE PROHIBITIONS.
      CONTRACTOR/SUBCONTRACTOR: ASPEN TECHNOLOGY, INC. 20 CROSBY DRIVE,
      BEDFORD, MA 01730.
 *** INPUT SUMMARY ***

 >>CURRENT RUN

   ORIGINAL RUN                           MARCH 12, 2025      
   7:52:37 P.M.                           WEDNESDAY   
   INPUT FILE: _4806law.inm
   RUN ID : _4806law
          1    ;
          2    ;Input file created by Aspen Plus Rel. 40.0 at 19:52:37 Wed Mar 12, 2025
          3    ;Directory   Runid STEP 2 - ABSORBER AND STRIPPER INTEGRATED MODEL
          4    ;
          5
          6
          7    DYNAMICS
          8        DYNAMICS RESULTS=ON
          9
         10    IN-UNITS SI MASS-FLOW='kg/hr' MOLE-HEAT-CA='kJ/kmol-K'  &
         11            PRESSURE=bar TEMPERATURE=C DELTA-T=C PDROP=bar
         12
         13    DEF-STREAMS CONVEN ALL
         14
         15    SIM-OPTIONS MASS-BAL-CHE=YES TLOWER=-263.1500000  &
         16            GAMUS-BASIS=AQUEOUS
         17
         18    MODEL-OPTION
         19
         20    DATABANKS 'APV140 PURE40' / 'APV140 AQUEOUS' / 'APV140 SOLIDS' &
         21             / 'APV140 INORGANIC' / NOASPENPCD
         22
         23    PROP-SOURCES 'APV140 PURE40' / 'APV140 AQUEOUS' /  &
         24            'APV140 SOLIDS' / 'APV140 INORGANIC'
         25
         26    COMPONENTS
         27        MEA C2H7NO /
         28        H2O H2O /
         29        CO2 CO2 /
         30        H3O+ H3O+ /
         31        OH- OH- /
         32        HCO3- HCO3- /
         33        CO3-2 CO3-2 /
         34        MEAH+ C2H8NO+ /
         35        MEACOO- C3H6NO3- /
         36        N2 N2 /
         37        O2 O2 /
         38        CO CO /
         39        H2 H2 /
         40        H2S H2S /
         41        HS- HS- /
         42        S-2 S-2
         43
         44    HENRY-COMPS GLOBAL CO2 N2 O2 CO H2 H2S
         45
         46    SOLVE
         47        RUN-MODE MODE=SIM
         48
         49    CHEMISTRY MEA
         50        STOIC 1 H2O -2.0 / H3O+ 1.0 / OH- 1.0
         51        STOIC 2 CO2 -1.0 / H2O -2.0 / HCO3- 1.0 / H3O+ 1.0
         52        STOIC 3 HCO3- -1.0 / H2O -1.0 / CO3-2 1.0 / H3O+ 1.0
         53        STOIC 4 MEAH+ -1. / H2O -1. / MEA 1. / H3O+ 1.
         54        STOIC 5 MEACOO- -1. / H2O -1. / MEA 1. / HCO3- 1.
         55        STOIC 6 H2S -1. / H2O -1. / HS- 1. / H3O+ 1.
         56        STOIC 7 HS- -1. / H2O -1. / S-2 1. / H3O+ 1.
         57        K-STOIC 6 A=214.582 B=-12995.4 C=-33.5471
         58        K-STOIC 7 A=-9.742 B=-8585.47
         59
         60    FLOWSHEET
         61        BLOCK COOLER1 IN=FLUEBLOW OUT=FLUEABS
         62        BLOCK BLOWER IN=FLUESEP OUT=FLUEBLOW
         63        BLOCK SEP IN=FLUECOOL OUT=FLUESEP SEPOUT
         64        BLOCK COOLER IN=FLUEGAS OUT=FLUECOOL
         65        BLOCK ABSORBER IN=FLUEABS LEANABS OUT=TREATGAS RICHMEA
         66        BLOCK SOL-COOL IN=LEANMEX OUT=LEAN-MEA
         67        BLOCK MIXER IN=LEANSTRC MEA WATER OUT=LEANMEX
         68        BLOCK STRIPPER IN=RICHSTPR OUT=CO2 LEANSTPR
         69        BLOCK SOL-HEX IN=LEANP2 RICHP1 OUT=LEANSTRC RICHSTPR
         70        BLOCK PUMP2 IN=LEANSTPR OUT=LEANP2
         71        BLOCK PUMP1 IN=RICHMEA OUT=RICHP1
         72
         73    PROPERTIES ELECNRTL HENRY-COMPS=GLOBAL CHEMISTRY=MEA  &
         74            TRUE-COMPS=YES
         75
         76    PROP-REPLACE ELECNRTL ELECNRTL
         77        MODEL VAQCLK 1 1
         78        MODEL MUL2JONS 1 1 1 2
         79        MODEL DL1NST 1 1
         80        MODEL SIG2ONSG 1 -9 1
         81        MODEL DL0NST 1 1
         82
         83    PROP-DATA DHAQFM
         84        IN-UNITS SI MASS-FLOW='kg/hr' MOLE-HEAT-CA='kJ/kmol-K'  &
         85            PRESSURE=bar TEMPERATURE=C DELTA-T=C PDROP=bar
         86        PROP-LIST DHAQFM / DGAQFM
         87        PVAL MEAH+ -3.3371074E+8 / -1.9013044E+8
         88        PVAL MEACOO- -6.9846867E+8 / -4.9344343E+8
         89
         90    PROP-DATA REVIEW-1
         91        IN-UNITS SI MASS-FLOW='kg/hr' MOLE-HEAT-CA='kJ/kmol-K'  &
         92            DELTA-T=C PDROP=bar
         93        PROP-LIST IONRDL
         94        PVAL MEAH+ 0
         95        PVAL MEACOO- 0
         96
         97    PROP-DATA CPAQ0-1
         98        IN-UNITS SI MASS-FLOW='kg/hr' PRESSURE=bar DELTA-T=C  &
         99            PDROP=bar
        100        PROP-LIST CPAQ0
        101        PVAL MEAH+ 1.60126959E+5
        102        PVAL MEACOO- -.1751245940
        103        PVAL HCO3- -29260
        104        PVAL CO3-2 -397100
        105
        106    PROP-DATA IONMOB-1
        107        IN-UNITS SI MASS-FLOW='kg/hr' MOLE-HEAT-CA='kJ/kmol-K'  &
        108            PRESSURE=bar DELTA-T=C PDROP=bar
        109        PROP-LIST IONMOB
        110        PVAL MEAH+ 5 0
        111        PVAL MEACOO- 5 0
        112
        113    PROP-DATA IONMUB-1
        114        IN-UNITS SI MASS-FLOW='kg/hr' MOLE-HEAT-CA='kJ/kmol-K'  &
        115            PRESSURE=bar DELTA-T=C PDROP=bar
        116        PROP-LIST IONMUB
        117        PVAL CO3-2 .5641176540
        118        PVAL HCO3- .09469440180
        119        PVAL MEAH+ .2995182540 0.0
        120        PVAL MEACOO- .2010385470 0.0
        121
        122    PROP-DATA VLBROC-1
        123        IN-UNITS SI MASS-FLOW='kg/hr' MOLE-HEAT-CA='kJ/kmol-K'  &
        124            PRESSURE=bar DELTA-T=C PDROP=bar
        125        PROP-LIST VLBROC
        126        PVAL CO2 .04264657490 -.00024519450
        127
        128    PROP-DATA HOCETA-1
        129        IN-UNITS SI MASS-FLOW='kg/hr' MOLE-HEAT-CA='kJ/kmol-K'  &
        130            PRESSURE=bar TEMPERATURE=C DELTA-T=C PDROP=bar
        131        PROP-LIST HOCETA
        132        BPVAL H2O H2O 1.70
        133        BPVAL H2O CO2 .30
        134        BPVAL CO2 H2O .30
        135        BPVAL CO2 CO2 .160
        136
        137    PROP-DATA VLQKIJ-1
        138        IN-UNITS SI MASS-FLOW='kg/hr' MOLE-HEAT-CA='kJ/kmol-K'  &
        139            PRESSURE=bar TEMPERATURE=C DELTA-T=C PDROP=bar
        140        PROP-LIST VLQKIJ
        141        BPVAL H2O MEA -.0711319026
        142        BPVAL MEA H2O -.0711319026
        143
        144    PROP-DATA HENRY-1
        145        IN-UNITS SI MASS-FLOW='kg/hr' MOLE-HEAT-CA='kJ/kmol-K'  &
        146            DELTA-T=C PDROP=bar
        147        PROP-LIST HENRY
        148        BPVAL CO2 H2O -145.3161340 765.8882280 32.24727040  &
        149            -.0739507133 0.0 2000.0 0.0
        150        BPVAL CO2 MEA 20.175859960 -1138.50 0.0 0.0 0.0 2000.0  &
        151            0.0
        152        BPVAL N2 H2O 176.5070 -8432.770 -21.5580 -.008436240 273.0  &
        153            346.0 0.0
        154        BPVAL H2S H2O 358.1380000 -13236.80000 -55.05510000  &
        155            .0595650000 273.0000000 423.0000000 0.0
        156        BPVAL H2S MEA 556.1821210 -19877.63140 -81.66709010 0.0  &
        157            0.0 2000.000000 0.0
        158        BPVAL O2 H2O 155.9210000 -7775.060000 -18.39740000  &
        159            -9.4435400E-3 274.0000000 348.0000000 0.0
        160        BPVAL CO H2O 183.2880000 -8296.750000 -23.33720000 0.0  &
        161            273.0000000 353.0000000 0.0
        162        BPVAL H2 H2O 191.5790000 -6993.510000 -26.31190000  &
        163            .0150431000 274.0000000 339.0000000 0.0
        164
        165    PROP-DATA MUKIJ-1
        166        IN-UNITS SI MASS-FLOW='kg/hr' MOLE-HEAT-CA='kJ/kmol-K'  &
        167            PRESSURE=bar DELTA-T=C PDROP=bar
        168        PROP-LIST MUKIJ
        169        BPVAL MEA H2O .7041107980 0.0 0.0 0.0 0.0 298.150
        170        BPVAL H2O MEA .7041107980 0.0 0.0 0.0 0.0 298.150
        171
        172    PROP-DATA MULIJ-1
        173        IN-UNITS SI MASS-FLOW='kg/hr' MOLE-HEAT-CA='kJ/kmol-K'  &
        174            PRESSURE=bar DELTA-T=C PDROP=bar
        175        PROP-LIST MULIJ
        176        BPVAL MEA H2O -1.741797970 0.0 0.0 0.0 0.0 298.150
        177        BPVAL H2O MEA 1.741797970 0.0 0.0 0.0 0.0 298.150
        178
        179    PROP-DATA NRTL-1
        180        IN-UNITS SI MASS-FLOW='kg/hr' MOLE-HEAT-CA='kJ/kmol-K'  &
        181            PRESSURE=bar DELTA-T=C PDROP=bar
        182        PROP-LIST NRTL
        183        BPVAL MEA H2O 1.438498000 99.02104000 .2000000000 0.0 0.0  &
        184            0.0 298.1500000 423.1500000
        185        BPVAL H2O MEA -1.046602000 -337.5456000 .2000000000 0.0  &
        186            0.0 0.0 298.1500000 423.1500000
        187        BPVAL H2O CO2 0.0 0.0 .20 0.0 0.0 0.0 0.0 1000.0
        188        BPVAL CO2 H2O 0.0 0.0 .20 0.0 0.0 0.0 0.0 1000.0
        189        BPVAL H2O H2S -3.674000000 1155.900000 .2000000000 0.0 0.0  &
        190            0.0 273.1500000 423.1500000
        191        BPVAL H2S H2O -3.674000000 1155.900000 .2000000000 0.0 0.0  &
        192            0.0 273.1500000 423.1500000
        193
        194    PROP-DATA VLCLK-1
        195        IN-UNITS SI MASS-FLOW='kg/hr' MOLE-HEAT-CA='kJ/kmol-K'  &
        196            PRESSURE=bar TEMPERATURE=C DELTA-T=C PDROP=bar
        197        PROP-LIST VLCLK
        198        BPVAL MEAH+ HCO3- .06528374280 0.0
        199        BPVAL MEAH+ MEACOO- .1225642980 0.0
        200        BPVAL MEAH+ CO3-2 -.02877240020 0.0
        201        BPVAL MEAH+ OH- 0.0 0.0
        202
        203    PROP-DATA GMELCC-1
        204        IN-UNITS SI MASS-FLOW='kg/hr' MOLE-HEAT-CA='kJ/kmol-K'  &
        205            PRESSURE=bar TEMPERATURE=C DELTA-T=C PDROP=bar
        206        PROP-LIST GMELCC
        207        PPVAL MEA ( H3O+ OH- ) 8.0
        208        PPVAL ( H3O+ OH- ) MEA -4.0
        209        PPVAL MEA ( H3O+ HCO3- ) 8.0
        210        PPVAL ( H3O+ HCO3- ) MEA -4.0
        211        PPVAL MEA ( H3O+ CO3-2 ) 8.0
        212        PPVAL ( H3O+ CO3-2 ) MEA -4.0
        213        PPVAL MEA ( H3O+ MEACOO- ) 8.0
        214        PPVAL ( H3O+ MEACOO- ) MEA -4.0
        215        PPVAL MEA ( MEAH+ OH- ) 8.0
        216        PPVAL ( MEAH+ OH- ) MEA -4.0
        217        PPVAL MEA ( MEAH+ HCO3- ) 8.0
        218        PPVAL ( MEAH+ HCO3- ) MEA -4.0
        219        PPVAL MEA ( MEAH+ CO3-2 ) 8.0
        220        PPVAL ( MEAH+ CO3-2 ) MEA -4.0
        221        PPVAL MEA ( MEAH+ MEACOO- ) 8.0
        222        PPVAL ( MEAH+ MEACOO- ) MEA -4.0
        223        PPVAL H2O ( H3O+ OH- ) 8.0
        224        PPVAL ( H3O+ OH- ) H2O -4.0
        225        PPVAL H2O ( H3O+ HCO3- ) 8.0
        226        PPVAL ( H3O+ HCO3- ) H2O -4.0
        227        PPVAL H2O ( H3O+ CO3-2 ) 8.0
        228        PPVAL ( H3O+ CO3-2 ) H2O -4.0
        229        PPVAL H2O ( MEAH+ HCO3- ) 1.469406150
        230        PPVAL ( MEAH+ HCO3- ) H2O -1.402090970
        231        PPVAL H2O ( MEAH+ MEACOO- ) 7.387094060
        232        PPVAL ( MEAH+ MEACOO- ) H2O -3.253917800
        233        PPVAL CO2 ( H3O+ OH- ) 8.0
        234        PPVAL ( H3O+ OH- ) CO2 -4.0
        235        PPVAL CO2 ( H3O+ HCO3- ) 8.0
        236        PPVAL ( H3O+ HCO3- ) CO2 -4.0
        237        PPVAL CO2 ( H3O+ CO3-2 ) 8.0
        238        PPVAL ( H3O+ CO3-2 ) CO2 -4.0
        239        PPVAL CO2 ( H3O+ MEACOO- ) 8.0
        240        PPVAL ( H3O+ MEACOO- ) CO2 -4.0
        241        PPVAL CO2 ( MEAH+ OH- ) 8.0
        242        PPVAL ( MEAH+ OH- ) CO2 -4.0
        243        PPVAL CO2 ( MEAH+ HCO3- ) 8.0
        244        PPVAL ( MEAH+ HCO3- ) CO2 -4.0
        245        PPVAL CO2 ( MEAH+ CO3-2 ) 8.0
        246        PPVAL ( MEAH+ CO3-2 ) CO2 -4.0
        247        PPVAL CO2 ( MEAH+ MEACOO- ) 8.0
        248        PPVAL ( MEAH+ MEACOO- ) CO2 -4.0
        249        PPVAL H2O ( MEAH+ CO3-2 ) 8.0
        250        PPVAL ( MEAH+ CO3-2 ) H2O -4.0
        251        PPVAL H2O ( H3O+ MEACOO- ) 8.0
        252        PPVAL ( H3O+ MEACOO- ) H2O -4.0
        253        PPVAL H2O ( MEAH+ OH- ) 8.0
        254        PPVAL ( MEAH+ OH- ) H2O -4.0
        255        PPVAL H2O ( MEAH+ HS- ) 4.849272000
        256        PPVAL ( MEAH+ HS- ) H2O -2.740223000
        257
        258    PROP-DATA GMELCD-1
        259        IN-UNITS SI MASS-FLOW='kg/hr' MOLE-HEAT-CA='kJ/kmol-K'  &
        260            PRESSURE=bar DELTA-T=C PDROP=bar
        261        PROP-LIST GMELCD
        262        PPVAL MEA ( H3O+ OH- ) 0.0
        263        PPVAL ( H3O+ OH- ) MEA 0.0
        264        PPVAL MEA ( H3O+ HCO3- ) 0.0
        265        PPVAL ( H3O+ HCO3- ) MEA 0.0
        266        PPVAL MEA ( H3O+ CO3-2 ) 0.0
        267        PPVAL ( H3O+ CO3-2 ) MEA 0.0
        268        PPVAL MEA ( H3O+ MEACOO- ) 0.0
        269        PPVAL ( H3O+ MEACOO- ) MEA 0.0
        270        PPVAL MEA ( MEAH+ OH- ) 0.0
        271        PPVAL ( MEAH+ OH- ) MEA 0.0
        272        PPVAL MEA ( MEAH+ HCO3- ) 0.0
        273        PPVAL ( MEAH+ HCO3- ) MEA 0.0
        274        PPVAL MEA ( MEAH+ CO3-2 ) 0.0
        275        PPVAL ( MEAH+ CO3-2 ) MEA 0.0
        276        PPVAL MEA ( MEAH+ MEACOO- ) 0.0
        277        PPVAL ( MEAH+ MEACOO- ) MEA 0.0
        278        PPVAL H2O ( H3O+ OH- ) 0.0
        279        PPVAL ( H3O+ OH- ) H2O 0.0
        280        PPVAL H2O ( H3O+ HCO3- ) 0.0
        281        PPVAL ( H3O+ HCO3- ) H2O 0.0
        282        PPVAL H2O ( H3O+ CO3-2 ) 0.0
        283        PPVAL ( H3O+ CO3-2 ) H2O 0.0
        284        PPVAL H2O ( MEAH+ HCO3- ) 0.0
        285        PPVAL ( MEAH+ HCO3- ) H2O 0.0
        286        PPVAL H2O ( MEAH+ MEACOO- ) 0.0
        287        PPVAL ( MEAH+ MEACOO- ) H2O 0.0
        288        PPVAL CO2 ( H3O+ OH- ) 0.0
        289        PPVAL ( H3O+ OH- ) CO2 0.0
        290        PPVAL CO2 ( H3O+ HCO3- ) 0.0
        291        PPVAL ( H3O+ HCO3- ) CO2 0.0
        292        PPVAL CO2 ( H3O+ CO3-2 ) 0.0
        293        PPVAL ( H3O+ CO3-2 ) CO2 0.0
        294        PPVAL CO2 ( H3O+ MEACOO- ) 0.0
        295        PPVAL ( H3O+ MEACOO- ) CO2 0.0
        296        PPVAL CO2 ( MEAH+ OH- ) 0.0
        297        PPVAL ( MEAH+ OH- ) CO2 0.0
        298        PPVAL CO2 ( MEAH+ HCO3- ) 0.0
        299        PPVAL ( MEAH+ HCO3- ) CO2 0.0
        300        PPVAL CO2 ( MEAH+ CO3-2 ) 0.0
        301        PPVAL ( MEAH+ CO3-2 ) CO2 0.0
        302        PPVAL CO2 ( MEAH+ MEACOO- ) 0.0
        303        PPVAL ( MEAH+ MEACOO- ) CO2 0.0
        304        PPVAL H2O ( MEAH+ CO3-2 ) 0.0
        305        PPVAL ( MEAH+ CO3-2 ) H2O 0.0
        306        PPVAL H2O ( H3O+ MEACOO- ) 0.0
        307        PPVAL ( H3O+ MEACOO- ) H2O 0.0
        308        PPVAL H2O ( MEAH+ OH- ) 0.0
        309        PPVAL ( MEAH+ OH- ) H2O 0.0
        310        PPVAL H2O ( MEAH+ HS- ) 1215.540000
        311        PPVAL ( MEAH+ HS- ) H2O -483.7007000
        312
        313    PROP-DATA GMELCE-1
        314        IN-UNITS SI MASS-FLOW='kg/hr' MOLE-HEAT-CA='kJ/kmol-K'  &
        315            PRESSURE=bar TEMPERATURE=C DELTA-T=C PDROP=bar
        316        PROP-LIST GMELCE
        317        PPVAL MEA ( H3O+ OH- ) 0.0
        318        PPVAL ( H3O+ OH- ) MEA 0.0
        319        PPVAL MEA ( H3O+ HCO3- ) 0.0
        320        PPVAL ( H3O+ HCO3- ) MEA 0.0
        321        PPVAL MEA ( H3O+ CO3-2 ) 0.0
        322        PPVAL ( H3O+ CO3-2 ) MEA 0.0
        323        PPVAL MEA ( H3O+ MEACOO- ) 0.0
        324        PPVAL ( H3O+ MEACOO- ) MEA 0.0
        325        PPVAL MEA ( MEAH+ OH- ) 0.0
        326        PPVAL ( MEAH+ OH- ) MEA 0.0
        327        PPVAL MEA ( MEAH+ HCO3- ) 0.0
        328        PPVAL ( MEAH+ HCO3- ) MEA 0.0
        329        PPVAL MEA ( MEAH+ CO3-2 ) 0.0
        330        PPVAL ( MEAH+ CO3-2 ) MEA 0.0
        331        PPVAL MEA ( MEAH+ MEACOO- ) 0.0
        332        PPVAL ( MEAH+ MEACOO- ) MEA 0.0
        333        PPVAL H2O ( H3O+ OH- ) 0.0
        334        PPVAL ( H3O+ OH- ) H2O 0.0
        335        PPVAL H2O ( H3O+ HCO3- ) 0.0
        336        PPVAL ( H3O+ HCO3- ) H2O 0.0
        337        PPVAL H2O ( H3O+ CO3-2 ) 0.0
        338        PPVAL ( H3O+ CO3-2 ) H2O 0.0
        339        PPVAL H2O ( MEAH+ HCO3- ) 0.0
        340        PPVAL ( MEAH+ HCO3- ) H2O 0.0
        341        PPVAL H2O ( MEAH+ MEACOO- ) 0.0
        342        PPVAL ( MEAH+ MEACOO- ) H2O 0.0
        343        PPVAL CO2 ( H3O+ OH- ) 0.0
        344        PPVAL ( H3O+ OH- ) CO2 0.0
        345        PPVAL CO2 ( H3O+ HCO3- ) 0.0
        346        PPVAL ( H3O+ HCO3- ) CO2 0.0
        347        PPVAL CO2 ( H3O+ CO3-2 ) 0.0
        348        PPVAL ( H3O+ CO3-2 ) CO2 0.0
        349        PPVAL CO2 ( H3O+ MEACOO- ) 0.0
        350        PPVAL ( H3O+ MEACOO- ) CO2 0.0
        351        PPVAL CO2 ( MEAH+ OH- ) 0.0
        352        PPVAL ( MEAH+ OH- ) CO2 0.0
        353        PPVAL CO2 ( MEAH+ HCO3- ) 0.0
        354        PPVAL ( MEAH+ HCO3- ) CO2 0.0
        355        PPVAL CO2 ( MEAH+ CO3-2 ) 0.0
        356        PPVAL ( MEAH+ CO3-2 ) CO2 0.0
        357        PPVAL CO2 ( MEAH+ MEACOO- ) 0.0
        358        PPVAL ( MEAH+ MEACOO- ) CO2 0.0
        359        PPVAL H2O ( MEAH+ CO3-2 ) 0.0
        360        PPVAL ( MEAH+ CO3-2 ) H2O 0.0
        361        PPVAL H2O ( H3O+ MEACOO- ) 0.0
        362        PPVAL ( H3O+ MEACOO- ) H2O 0.0
        363        PPVAL H2O ( MEAH+ OH- ) 0.0
        364        PPVAL ( MEAH+ OH- ) H2O 0.0
        365
        366    PROP-DATA GMELCN-1
        367        IN-UNITS SI MASS-FLOW='kg/hr' MOLE-HEAT-CA='kJ/kmol-K'  &
        368            PRESSURE=bar TEMPERATURE=C DELTA-T=C PDROP=bar
        369        PROP-LIST GMELCN
        370        PPVAL MEA ( H3O+ OH- ) .20
        371        PPVAL MEA ( H3O+ HCO3- ) .20
        372        PPVAL MEA ( H3O+ CO3-2 ) .20
        373        PPVAL MEA ( H3O+ MEACOO- ) .20
        374        PPVAL MEA ( MEAH+ OH- ) .20
        375        PPVAL MEA ( MEAH+ HCO3- ) .20
        376        PPVAL MEA ( MEAH+ CO3-2 ) .20
        377        PPVAL MEA ( MEAH+ MEACOO- ) .20
        378        PPVAL CO2 ( H3O+ OH- ) .20
        379        PPVAL CO2 ( H3O+ HCO3- ) .20
        380        PPVAL CO2 ( H3O+ CO3-2 ) .20
        381        PPVAL CO2 ( H3O+ MEACOO- ) .20
        382        PPVAL CO2 ( MEAH+ OH- ) .20
        383        PPVAL CO2 ( MEAH+ HCO3- ) .20
        384        PPVAL CO2 ( MEAH+ CO3-2 ) .20
        385        PPVAL CO2 ( MEAH+ MEACOO- ) .20
        386        PPVAL H2O ( H3O+ OH- ) .20
        387        PPVAL H2O ( H3O+ HCO3- ) .20
        388        PPVAL H2O ( H3O+ CO3-2 ) .20
        389        PPVAL H2O ( H3O+ MEACOO- ) .20
        390        PPVAL H2O ( MEAH+ OH- ) .20
        391        PPVAL H2O ( MEAH+ HCO3- ) .20
        392        PPVAL H2O ( MEAH+ CO3-2 ) .20
        393        PPVAL H2O ( MEAH+ MEACOO- ) .20
        394
        395    PROP-SET XAPP XAPP SUBSTREAM=MIXED COMPS=CO2 MEA PHASE=L
        396
        397    STREAM FLUEGAS
        398        SUBSTREAM MIXED TEMP=160.0000000 PRES=1.013000000  &
        399            MASS-FLOW=240606.
        400        MASS-FLOW H2O 0.0416 / CO2 0.2375 / N2 0.6971 / O2  &
        401            0.0238
        402
        403    STREAM LEANABS
        404        SUBSTREAM MIXED TEMP=40.00000000 PRES=2.100000000  &
        405            MASS-FLOW=1000000.
        406        MASS-FRAC MEA 0.232 / H2O 0.707 / CO2 0.061
        407
        408    STREAM MEA
        409        SUBSTREAM MIXED TEMP=40. PRES=2.1 MASS-FLOW=100.
        410        MASS-FRAC MEA 1.
        411
        412    STREAM WATER
        413        SUBSTREAM MIXED TEMP=40. PRES=2.1 MASS-FLOW=30050.
        414        MASS-FRAC H2O 1.
        415
        416    BLOCK MIXER MIXER
        417        PARAM
        418
        419    BLOCK COOLER HEATER
        420        PARAM TEMP=40.00000000 PRES=1.013000000 DPPARMOPT=NO
        421
        422    BLOCK COOLER1 HEATER
        423        PARAM TEMP=40.00000000 PRES=1.200000000 DPPARMOPT=NO
        424
        425    BLOCK SOL-COOL HEATER
        426        PARAM TEMP=40. PRES=2.1 DPPARMOPT=NO
        427
        428    BLOCK SEP FLASH2
        429        PARAM TEMP=30.00000000 PRES=1.013000000
        430
        431    BLOCK SOL-HEX HEATX
        432        PARAM INCR-COLD=45. CALC-TYPE=DESIGN U-OPTION=PHASE  &
        433            F-OPTION=CONSTANT CALC-METHOD=SHORTCUT
        434        FEEDS HOT=LEANP2 COLD=RICHP1
        435        OUTLETS-HOT LEANSTRC
        436        OUTLETS-COLD RICHSTPR
        437        HOT-SIDE DP-OPTION=CONSTANT DPPARMOPT=NO
        438        COLD-SIDE DP-OPTION=CONSTANT DPPARMOPT=NO
        439        TQ-PARAM CURVE=YES
        440
        441    BLOCK ABSORBER RADFRAC
        442        SUBOBJECTS INTERNALS = CS-1
        443        PARAM NSTAGE=10 ALGORITHM=STANDARD MAXOL=25 DAMPING=NONE
        444        PARAM2 STATIC-DP=NO OLD-SULZER=NO
        445        COL-CONFIG CONDENSER=NONE REBOILER=NONE CA-CONFIG=INT-1
        446        RATESEP-ENAB CALC-MODE=RIG-RATE
        447        FEEDS FLUEABS 10 ON-STAGE / LEANABS 1 ON-STAGE
        448        PRODUCTS RICHMEA 10 L / TREATGAS 1 V
        449        P-SPEC 1 1.200000000
        450        COL-SPECS
        451        INTERNALS CS-1 STAGE1=1 STAGE2=10 INTERNAL=PACKING  &
        452            SIZING=RATING RATE-BASE=YES P-UPDATE=NO DIAM=6.  &
        453            PACKTYPE=MELLAPAK VENDOR=SULZER PACK-MAT=STANDARD  &
        454            PACK-SIZE="250X" MTRFC-CORP=BRF-85 INTFA-CORP=BRF-85  &
        455            PACK-HT=8. THETA=60
        456        PACK-RATE 1 1 10 MELLAPAK
        457        PACK-RATE2 1
        458
        459    BLOCK STRIPPER RADFRAC
        460        SUBOBJECTS INTERNALS = CS-1
        461        PARAM NSTAGE=12 ALGORITHM=STANDARD MAXOL=25 DAMPING=NONE
        462        PARAM2 STATIC-DP=NO OLD-SULZER=NO
        463        COL-CONFIG CONDENSER=PARTIAL-V CA-CONFIG=INT-1
        464        RATESEP-ENAB CALC-MODE=RIG-RATE
        465        FEEDS RICHSTPR 6 ON-STAGE
        466        PRODUCTS LEANSTPR 12 L / CO2 1 V
        467        P-SPEC 1 1.9
        468        COL-SPECS B:F=0.94 MOLE-RR=1.8
        469        SPEC 1 MOLE-FRAC 0.98 COMPS=CO2 STREAMS=CO2  &
        470            SPEC-DESCRIP="Mole purity, 0.98, PRODUCT"
        471        SPEC 2 MASS-FLOW 48572. COMPS=CO2 STREAMS=CO2  &
        472            SPEC-DESCRIP="Mass flow, 48572., PRODUCT"
        473        VARY 1 MOLE-RR 0.5 4.
        474        VARY 2 B:F 0.5 4.
        475        INTERNALS CS-1 STAGE1=2 STAGE2=11 INTERNAL=PACKING  &
        476            SIZING=RATING RATE-BASE=YES P-UPDATE=NO DIAM=6.  &
        477            PACKTYPE=MELLAPAK VENDOR=SULZER PACK-MAT=STANDARD  &
        478            PACK-SIZE="250X" MTRFC-CORP=BRF-85 INTFA-CORP=BRF-85  &
        479            PACK-HT=8. THETA=60
        480        PACK-RATE 1 2 11 MELLAPAK
        481        PACK-RATE2 1
        482
        483    BLOCK PUMP1 PUMP
        484        PARAM PRES=2.1
        485
        486    BLOCK PUMP2 PUMP
        487        PARAM PRES=2.1
        488
        489    BLOCK BLOWER COMPR
        490        PARAM TYPE=ASME-ISENTROP PRES=1.200000000 SEFF=0.72 MEFF=1.  &
        491            SB-MAXIT=30 SB-TOL=0.0001
        492
        493    DESIGN-SPEC MEACON
        494        DEFINE MEACON MASS-FLOW STREAM=LEANABS SUBSTREAM=MIXED  &
        495            COMPONENT=MEA UOM="kg/hr"
        496        DEFINE WATER MASS-FLOW STREAM=LEANABS SUBSTREAM=MIXED  &
        497            COMPONENT=H2O UOM="kg/hr"
        498        SPEC "MEACON / (MEACON+WATER)" TO "0.3"
        499        TOL-SPEC "0.0001"
        500        VARY MASS-FLOW STREAM=LEANABS SUBSTREAM=MIXED COMPONENT=H2O  &
        501            UOM="kg/hr"
        502        LIMITS "1000" "1000000"
        503
        504    DESIGN-SPEC RECOVERY
        505        DEFINE CO2IN MOLE-FLOW STREAM=FLUEABS SUBSTREAM=MIXED  &
        506            COMPONENT=CO2 UOM="kmol/sec"
        507        DEFINE CO2OUT MOLE-FLOW STREAM=TREATGAS SUBSTREAM=MIXED  &
        508            COMPONENT=CO2 UOM="kmol/sec"
        509        SPEC "(CO2IN-CO2OUT)/CO2IN" TO "0.85"
        510        TOL-SPEC "0.0001"
        511        VARY STREAM-VAR STREAM=LEANABS SUBSTREAM=MIXED  &
        512            VARIABLE=MASS-FLOW UOM="kg/hr"
        513        LIMITS "800000" "2500000"
        514
        515    EO-CONV-OPTI
        516
        517    STREAM-REPOR MOLEFLOW MOLEFRAC PROPERTIES=XAPP
        518
        519    PROPERTY-REP NOPCES PROP-DATA DFMS NOPARAM-PLUS
        520
        521    REACTIONS MEA-REA REAC-DIST
        522        REAC-DATA 1
        523        REAC-DATA 2
        524        REAC-DATA 3
        525        REAC-DATA 4 KINETIC
        526        REAC-DATA 5 KINETIC
        527        REAC-DATA 6 KINETIC
        528        REAC-DATA 7 KINETIC
        529        REAC-DATA 8
        530        REAC-DATA 9
        531        K-STOIC 8 A=214.582 B=-12995.4 C=-33.5471
        532        K-STOIC 9 A=-9.742 B=-8585.47
        533        RATE-CON 4 PRE-EXP=4.32E+013 ACT-ENERGY=5.54709132E+7
        534        RATE-CON 5 PRE-EXP=2.38E+017 ACT-ENERGY=1.23305447E+8
        535        RATE-CON 6 PRE-EXP=97700000000. ACT-ENERGY=4.12642634E+7
        536        RATE-CON 7 PRE-EXP=3.23E+019 ACT-ENERGY=6.55443540E+7
        537        STOIC 1 MEAH+ -1. / H2O -1. / MEA 1. / H3O+ 1.
        538        STOIC 2 H2O -2. / H3O+ 1. / OH- 1.
        539        STOIC 3 HCO3- -1. / H2O -1. / CO3-2 1. / H3O+ 1.
        540        STOIC 4 CO2 -1. / OH- -1. / HCO3- 1.
        541        STOIC 5 HCO3- -1. / CO2 1. / OH- 1.
        542        STOIC 6 MEA -1. / CO2 -1. / H2O -1. / MEACOO- 1. /  &
        543            H3O+ 1.
        544        STOIC 7 MEACOO- -1. / H3O+ -1. / MEA 1. / CO2 1. /  &
        545            H2O 1.
        546        STOIC 8 H2S -1. / H2O -1. / HS- 1. / H3O+ 1.
        547        STOIC 9 HS- -1. / H2O -1. / S-2 1. / H3O+ 1.
        548        POWLAW-EXP 4 CO2 1. / OH- 1.
        549        POWLAW-EXP 5 HCO3- 1.
        550        POWLAW-EXP 6 MEA 1. / CO2 1. / H2O 0.
        551        POWLAW-EXP 7 MEACOO- 1. / H3O+ 1.
        552    ;
        553    ;
        554    ;
        555    ;
        556    ;
 *** INPUT TRANSLATOR MESSAGES ***

  *** THIS RUN USES THE PROPERTIES ENTERPRISE DATABASE ***
      SQLLOCALDB.APESV140 : (DATAVERSION - 40.0.0.13)                         
      SQLLOCALDB.APV140 : (DATAVERSION - 40.0.0.13)                           
      SQLLOCALDB.FACTV140 : (DATAVERSION - 40.0.0.12)                         
      SQLLOCALDB.NISTV140 : (DATAVERSION - 40.0.0.12)                         

      INFORMATION                                              (PSTOP1AP.1)     
      THERE ARE HENRY COMPONENTS DEFINED IN THIS CASE, THE BINARY DATABANK      
      WILL BE SEARCHED AUTOMATICALLY FOR ANY AVAILABLE HENRY CONSTANTS.         

      INFORMATION IN PHYSICAL PROPERTY SYSTEM                  (STELBP.3)       
      THE PAIR PARAMETERS FOR ELECNRTL OPTION SET HAS BEEN RETRIEVED FROM       
      DATABANK ENRTL-RK.                                                        

      INFORMATION                                              (GTDATA.4)       
      PURE COMPONENT PARAMETERS FOR SOME COMPONENTS ARE RETRIEVED FROM          
      DATABANK ELECPURE. THESE PARAMETERS ARE USED WITH ELECNRTL METHOD.        
      UNLESS YOU ENTER YOUR OWN PARAMETERS IN PROP-DATA PARAGRAPHS.             
      PARAMETER RKTZRA RETRIEVED FOR COMPONENT MEA                              
      PARAMETER DHFORM RETRIEVED FOR COMPONENT MEA                              
      PARAMETER PLXANT RETRIEVED FOR COMPONENT H2O                              
      PARAMETER THRSWT(ELEMENT/3) RETRIEVED FOR COMPONENT MEA                   
      PARAMETER THRSWT(ELEMENT/3) RETRIEVED FOR COMPONENT H2O                   
      PARAMETER PLXANT RETRIEVED FOR COMPONENT MEA                              
      PARAMETER VLBROC RETRIEVED FOR COMPONENT H2S                              
      PARAMETER CPDIEC RETRIEVED FOR COMPONENT MEA                              

  *   WARNING IN THE "STREAM" PARAGRAPH WHICH BEGINS ON LINE 397                
      STREAM NAME: FLUEGAS                                     (STSTRM.30)      
      COMPONENT MASS FLOWS OF SUBSTREAM: "MIXED"                                
      ARE NORMALIZED TO THE TOTAL MASS FLOW VALUE.                              
 
 DESIGN SPEC: MEACON WILL BE INTERPRETED 
 DESIGN SPEC: RECOVERY WILL BE INTERPRETED 
 

 PDF updated                                                                      TIME =      2.04

 *** CALCULATION TRACE ***


 *** FLOWSHEET ANALYSIS MESSAGES ***

 FLOWSHEET CONNECTIVITY BY STREAMS       

   STREAM     SOURCE     DEST           STREAM     SOURCE     DEST
   FLUEGAS    ----       COOLER         LEANABS    ----       ABSORBER
   WATER      ----       MIXER          MEA        ----       MIXER   
   FLUEABS    COOLER1    ABSORBER       FLUEBLOW   BLOWER     COOLER1 
   FLUESEP    SEP        BLOWER         SEPOUT     SEP        ----    
   FLUECOOL   COOLER     SEP            TREATGAS   ABSORBER   ----    
   RICHMEA    ABSORBER   PUMP1          LEAN-MEA   SOL-COOL   ----    
   LEANMEX    MIXER      SOL-COOL       CO2        STRIPPER   ----    
   LEANSTPR   STRIPPER   PUMP2          LEANSTRC   SOL-HEX    MIXER   
   RICHSTPR   SOL-HEX    STRIPPER       LEANP2     PUMP2      SOL-HEX 
   RICHP1     PUMP1      SOL-HEX                                      

 FLOWSHEET CONNECTIVITY BY BLOCKS        

   BLOCK        INLETS                         OUTLETS
   COOLER1      FLUEBLOW                       FLUEABS                     
   BLOWER       FLUESEP                        FLUEBLOW                    
   SEP          FLUECOOL                       FLUESEP SEPOUT              
   COOLER       FLUEGAS                        FLUECOOL                    
   ABSORBER     FLUEABS LEANABS                TREATGAS RICHMEA            
   SOL-COOL     LEANMEX                        LEAN-MEA                    
   MIXER        LEANSTRC MEA WATER             LEANMEX                     
   STRIPPER     RICHSTPR                       CO2 LEANSTPR                
   SOL-HEX      LEANP2 RICHP1                  LEANSTRC RICHSTPR           
   PUMP2        LEANSTPR                       LEANP2                      
   PUMP1        RICHMEA                        RICHP1                      

      BLOCK $OLVER01 (METHOD: WEGSTEIN) HAS BEEN DEFINED TO CONVERGE
               STREAMS: LEANP2

      BLOCK $OLVER02 (METHOD: SECANT  ) HAS BEEN DEFINED TO CONVERGE
                SPECS : MEACON

      BLOCK $OLVER03 (METHOD: SECANT  ) HAS BEEN DEFINED TO CONVERGE
                SPECS : RECOVERY

      COMPUTATION ORDER FOR THE FLOWSHEET IS:
      COOLER SEP BLOWER COOLER1 
      $OLVER03 
      |  $OLVER02 
      |  (RETURN $OLVER02) 
      |  ABSORBER 
      (RETURN $OLVER03) 
      PUMP1 
      $OLVER01 SOL-HEX STRIPPER PUMP2 
      (RETURN $OLVER01) 
      MIXER SOL-COOL 

Calculations begin                                                              time      0.25


 SIMULATION CALCULATIONS BEGIN                                                    TIME =      0.25

      ENTHALPY CALCULATION FOR INLET STREAM FLUEGAS OF BLOCK COOLER               TIME =      0.25
      KODE = 2  NTRIAL =   2  T =  433.150      P =  101300.      V =  1.00000      Q =  0.00000    

      UOS BLOCK COOLER   MODEL: HEATER                                            TIME =      0.25
      KODE = 2  NTRIAL =   2  T =  313.150      P =  101300.      V =  1.00000      Q =-8.407167E+06

      UOS BLOCK SEP      MODEL: FLASH2                                            TIME =      0.26
      KODE = 2  NTRIAL =   3  T =  303.150      P =  101300.      V = 0.971964      Q =-3.421116E+06

      UOS BLOCK BLOWER   MODEL: COMPR                                             TIME =      0.26
      OUTLET TEMP =   322.8       OUTLET PRES =  0.1200E+06   INDICATED HP =  0.1313E+07   BRAKE HP =  0.1313E+07
      POLYTROPIC EFFICIENCY =  0.7200    
      ASME FAC =   1.000    

      UOS BLOCK COOLER1  MODEL: HEATER                                            TIME =      0.26
      KODE = 2  NTRIAL =   2  T =  313.150      P =  120000.      V =  1.00000      Q = -649211.    

      CONVERGENCE BLOCK $OLVER03  METHOD: SECANT                                  TIME =      0.26
     SPECS: RECOVERY

      ENTHALPY CALCULATION FOR INLET STREAM LEANABS OF BLOCK ABSORBER             TIME =      0.26
      KODE = 2  NTRIAL =   3  T =  313.150      P =  210000.      V =  0.00000      Q =  0.00000    

      CONVERGENCE BLOCK $OLVER02  METHOD: SECANT                                  TIME =      0.26
     SPECS: MEACON

      CONVERGENCE BLOCK $OLVER02  METHOD: SECANT                                  TIME =      0.26
      ITER   0 For Specs:        MEACON
      ---FLASH STREAM LEANABS :
      KODE = 2  NTRIAL =   3  T =  313.150      P =  210000.      V =  0.00000      Q =-8.118223E+06
      SPEC   1 ERROR = -0.21676     OLD X =   10.882     NEW X =   11.036    

  LOOP $OLVER02 ITER    1:   1 VARS NOT CONVERGED, MAX ERR/TOL     -2167.6        TIME =      0.27

      CONVERGENCE BLOCK $OLVER02  METHOD: SECANT                                  TIME =      0.27
      ITER   2 For Specs:        MEACON
      ---FLASH STREAM LEANABS :
      KODE = 2  NTRIAL =   3  T =  313.150      P =  210000.      V =  0.00000      Q = 5.762357E+08
      SPEC   1 ERROR = -0.21780     OLD X =   11.036     NEW X =  0.15419E-01

  LOOP $OLVER02 ITER    2:   1 VARS NOT CONVERGED, MAX ERR/TOL     -2178.0        TIME =      0.27

      CONVERGENCE BLOCK $OLVER02  METHOD: SECANT                                  TIME =      0.27
      ITER   3 For Specs:        MEACON
      ---FLASH STREAM LEANABS :
      KODE = 2  NTRIAL =   3  T =  313.150      P =  210000.      V =  0.00000      Q =-1.035031E+09
      SPEC   1 ERROR =  0.68429     OLD X =  0.15419E-01 NEW X =   5.8187    

  LOOP $OLVER02 ITER    3:   1 VARS NOT CONVERGED, MAX ERR/TOL      6842.9        TIME =      0.27

      CONVERGENCE BLOCK $OLVER02  METHOD: SECANT                                  TIME =      0.27
      ITER   4 For Specs:        MEACON
      ---FLASH STREAM LEANABS :
      KODE = 2  NTRIAL =   4  T =  313.150      P =  210000.      V =  0.00000      Q = 2.790229E+08
      SPEC   1 ERROR = -0.15629     OLD X =   5.8187     NEW X =   2.2600    

  LOOP $OLVER02 ITER    4:   1 VARS NOT CONVERGED, MAX ERR/TOL     -1562.9        TIME =      0.27

      CONVERGENCE BLOCK $OLVER02  METHOD: SECANT                                  TIME =      0.27
      ITER   5 For Specs:        MEACON
      ---FLASH STREAM LEANABS :
      KODE = 2  NTRIAL =   2  T =  313.150      P =  210000.      V =  0.00000      Q =  648945.    
      SPEC   1 ERROR =  0.13177E-03 OLD X =   2.2600     NEW X =   2.2614    

  LOOP $OLVER02 ITER    5:   1 VARS NOT CONVERGED, MAX ERR/TOL      1.3177        TIME =      0.27

      CONVERGENCE BLOCK $OLVER02  METHOD: SECANT                                  TIME =      0.27
      ITER   6 For Specs:        MEACON
      ---FLASH STREAM LEANABS :
      KODE = 2  NTRIAL =   2  T =  313.150      P =  210000.      V =  0.00000      Q =  1854.26    
      SPEC   1 ERROR = -0.27857E-05                          X =   2.2614    

  LOOP $OLVER02 ITER    6:     *** CONVERGED *** , MAX ERR/TOL    -0.27857E-01    TIME =      0.27

      UOS BLOCK ABSORBER MODEL: RADFRAC                                           TIME =      0.27

       Convergence iterations:
         OL   ML   IL     Err/Tol
          1    1    5      2339.0    
          2    1    5      3929.4    
          3    1    3      3857.1    
          4    1    3      1931.3    
          5    1    3      1431.2    
          6    1    3      2064.4    
          7    1    3      2411.1    
          8    1    3      1532.7    
          9    1    3      1190.3    
         10    1    2      1535.0    
         11    1    2      1653.1    
         12    1    2      1126.5    
         13    1    2      836.58    
         14    1    3      1328.2    
         15    1    3      681.18    
         16    1    2      514.61    
         17    1    2      218.86    
         18    1    2      269.18    
         19    1    2      287.27    
         20    1    2      342.02    
         21    1    2      280.63    
         22    1    2      248.97    
         23    1    2      297.75    
         24    1    2      88.210    
         25    1    2      130.07    

  *   WARNING WHILE EXECUTING UNIT OPERATIONS BLOCK: "ABSORBER" (MODEL:         
      "RADFRAC")                                               (UDL03K.2)       
      RADFRAC NOT CONVERGED IN  25 OUTSIDE LOOP ITERATIONS.                     

  X-TRANS =   0  Y-TRANS =   0

       RateSep convergence iterations: ABSORBER
           Iter     Err/Tol
              0      123.95    
              1      71.197    
              2      18.395    
              3      1.9359    
              4     0.23976E-01
              5     0.13709E-04

      CONVERGENCE BLOCK $OLVER03  METHOD: SECANT                                  TIME =      0.48
      ITER   0 For Specs:        RECOVERY

  *   WARNING WHILE EXECUTING CONVERGENCE BLOCK: "$OLVER03" (MODEL: "SECANT")   
                                                               (ABNDCK.1)       
      INITIAL VALUE FOR DESIGN SPEC VARIABLE 1                                  
      IS BELOW LOWER BOUND.                                                     
      VALUE = 440107. KG/HR                                                     
      LOWER BOUND = 800000. KG/HR                                               
      UPPER BOUND = 0.250000E+07 KG/HR                                          
      VARIABLE RESET TO 970000. KG/HR                                           

      CONVERGENCE BLOCK $OLVER02  METHOD: SECANT                                  TIME =      0.48
      ITER   0 For Specs:        MEACON
      ---FLASH STREAM LEANABS :
      KODE = 2  NTRIAL =   2  T =  313.150      P =  210000.      V =  0.00000      Q =  26.3196    

      CONVERGENCE BLOCK $OLVER02  METHOD: SECANT                                  TIME =      0.48
      ITER   1 For Specs:        MEACON
      ---FLASH STREAM LEANABS :
      KODE = 2  NTRIAL =   2  T =  313.150      P =  210000.      V =  0.00000      Q =-0.535889    
      SPEC   1 ERROR = -0.27922E-05                          X =   4.9841    

  LOOP $OLVER02 ITER    1:     *** CONVERGED *** , MAX ERR/TOL    -0.27922E-01    TIME =      0.48

      UOS BLOCK ABSORBER MODEL: RADFRAC                                           TIME =      0.49

  X-TRANS =   0  Y-TRANS =   0

       RateSep convergence iterations: ABSORBER
           Iter     Err/Tol
              0      11069.    
              1      7462.0    
              2      4008.5    
              3      999.87    
              4      29.574    
              5      2.1892    
              6     0.30119E-01
              7     0.77056E-04

      CONVERGENCE BLOCK $OLVER03  METHOD: SECANT                                  TIME =      0.68
      ITER   1 For Specs:        RECOVERY

  *   WARNING WHILE EXECUTING CONVERGENCE BLOCK: "$OLVER03" (MODEL: "SECANT")   
                                                               (CONVI.2)        
      VALUE OF DESIGN SPEC VARIABLE 1 RESET OUTSIDE OF CONV. BLOCK              
      FROM 7.32450 TO 7.32450 ;                                                 
      PLEASE REVISE FLOWSHEET TO AVOID CONVERGENCE INSTABILITIES.               
      SPEC   1 ERROR =  0.77720E-01 OLD X =   7.3245     NEW X =   7.4529    

  LOOP $OLVER03 ITER    1:   1 VARS NOT CONVERGED, MAX ERR/TOL      777.20        TIME =      0.69

      CONVERGENCE BLOCK $OLVER02  METHOD: SECANT                                  TIME =      0.69
      ITER   0 For Specs:        MEACON
      ---FLASH STREAM LEANABS :
      KODE = 2  NTRIAL =   2  T =  313.150      P =  210000.      V =  0.00000      Q = 2.603605E-02

      CONVERGENCE BLOCK $OLVER02  METHOD: SECANT                                  TIME =      0.69
      ITER   1 For Specs:        MEACON
      ---FLASH STREAM LEANABS :
      KODE = 2  NTRIAL =   2  T =  313.150      P =  210000.      V =  0.00000      Q =-1.289586E-03
      SPEC   1 ERROR = -0.27922E-05                          X =   5.0715    

  LOOP $OLVER02 ITER    1:     *** CONVERGED *** , MAX ERR/TOL    -0.27922E-01    TIME =      0.69

      UOS BLOCK ABSORBER MODEL: RADFRAC                                           TIME =      0.69

  X-TRANS =   0  Y-TRANS =   0

       RateSep convergence iterations: ABSORBER
           Iter     Err/Tol
              0      151.12    
              1      4.1963    
              2     0.42366    
              3     0.17463E-01
              4     0.99421E-03

      CONVERGENCE BLOCK $OLVER03  METHOD: SECANT                                  TIME =      0.84
      ITER   2 For Specs:        RECOVERY
      SPEC   1 ERROR =  0.90975E-01 OLD X =   7.4529     NEW X =   6.5718    

  LOOP $OLVER03 ITER    2:   1 VARS NOT CONVERGED, MAX ERR/TOL      909.75        TIME =      0.84

      CONVERGENCE BLOCK $OLVER02  METHOD: SECANT                                  TIME =      0.84
      ITER   0 For Specs:        MEACON
      ---FLASH STREAM LEANABS :
      KODE = 2  NTRIAL =   2  T =  313.150      P =  210000.      V =  0.00000      Q =-2.741986E-06

      CONVERGENCE BLOCK $OLVER02  METHOD: SECANT                                  TIME =      0.84
      ITER   1 For Specs:        MEACON
      ---FLASH STREAM LEANABS :
      KODE = 2  NTRIAL =   2  T =  313.150      P =  210000.      V =  0.00000      Q = 2.115247E-05
      SPEC   1 ERROR = -0.27922E-05                          X =   4.4720    

  LOOP $OLVER02 ITER    1:     *** CONVERGED *** , MAX ERR/TOL    -0.27922E-01    TIME =      0.84

      UOS BLOCK ABSORBER MODEL: RADFRAC                                           TIME =      0.84

  X-TRANS =   0  Y-TRANS =   0

       RateSep convergence iterations: ABSORBER
           Iter     Err/Tol
              0      1014.2    
              1      294.84    
              2      71.350    
              3      13.994    
              4     0.87996    
              5     0.44791E-02

      CONVERGENCE BLOCK $OLVER03  METHOD: SECANT                                  TIME =      0.99
      ITER   3 For Specs:        RECOVERY
      SPEC   1 ERROR = -0.61493E-02 OLD X =   6.5718     NEW X =   6.6240    

  LOOP $OLVER03 ITER    3:   1 VARS NOT CONVERGED, MAX ERR/TOL     -61.493        TIME =      0.99

      CONVERGENCE BLOCK $OLVER02  METHOD: SECANT                                  TIME =      0.99
      ITER   0 For Specs:        MEACON
      ---FLASH STREAM LEANABS :
      KODE = 2  NTRIAL =   2  T =  313.150      P =  210000.      V =  0.00000      Q = 2.171512E-04

      CONVERGENCE BLOCK $OLVER02  METHOD: SECANT                                  TIME =      0.99
      ITER   1 For Specs:        MEACON
      ---FLASH STREAM LEANABS :
      KODE = 2  NTRIAL =   2  T =  313.150      P =  210000.      V =  0.00000      Q =-1.441095E-04
      SPEC   1 ERROR = -0.27922E-05                          X =   4.5075    

  LOOP $OLVER02 ITER    1:     *** CONVERGED *** , MAX ERR/TOL    -0.27922E-01    TIME =      0.99

      UOS BLOCK ABSORBER MODEL: RADFRAC                                           TIME =      0.99

  X-TRANS =   0  Y-TRANS =   0

       RateSep convergence iterations: ABSORBER
           Iter     Err/Tol
              0      69.711    
              1     0.25488    
              2     0.21318E-01
              3     0.32940E-03

      CONVERGENCE BLOCK $OLVER03  METHOD: SECANT                                  TIME =      1.08
      ITER   4 For Specs:        RECOVERY
      SPEC   1 ERROR = -0.14859E-03 OLD X =   6.6240     NEW X =   6.6253    

  LOOP $OLVER03 ITER    4:   1 VARS NOT CONVERGED, MAX ERR/TOL     -1.4859        TIME =      1.08

      CONVERGENCE BLOCK $OLVER02  METHOD: SECANT                                  TIME =      1.08
      ITER   0 For Specs:        MEACON
      ---FLASH STREAM LEANABS :
      KODE = 2  NTRIAL =   2  T =  313.150      P =  210000.      V =  0.00000      Q =  0.00000    

      CONVERGENCE BLOCK $OLVER02  METHOD: SECANT                                  TIME =      1.08
      ITER   1 For Specs:        MEACON
      ---FLASH STREAM LEANABS :
      KODE = 2  NTRIAL =   2  T =  313.150      P =  210000.      V =  0.00000      Q = 1.200489E-04
      SPEC   1 ERROR = -0.27922E-05                          X =   4.5083    

  LOOP $OLVER02 ITER    1:     *** CONVERGED *** , MAX ERR/TOL    -0.27922E-01    TIME =      1.08

      UOS BLOCK ABSORBER MODEL: RADFRAC                                           TIME =      1.08

  X-TRANS =   0  Y-TRANS =   0

       RateSep convergence iterations: ABSORBER
           Iter     Err/Tol
              0      1.7144    
              1     0.19852E-03

      CONVERGENCE BLOCK $OLVER03  METHOD: SECANT                                  TIME =      1.11
      ITER   5 For Specs:        RECOVERY
      SPEC   1 ERROR =  0.18897E-04                          X =   6.6253    

  LOOP $OLVER03 ITER    5:     *** CONVERGED *** , MAX ERR/TOL     0.18897        TIME =      1.11

      UOS BLOCK PUMP1    MODEL: PUMP                                              TIME =      1.12
      VOL-FLOW   =  0.2013     , DELTA P    =  0.9000E+05 , PUMP EFF   =  0.8408    
      FLUID PWR  =  0.1812E+05 , BRAKE PWR  =  0.2155E+05 , ELEC PWR   =  0.2155E+05

      CONVERGENCE BLOCK $OLVER01  METHOD: WEGSTEIN                                TIME =      1.12
      ITER   0 For Tear Streams: LEANP2

      UOS BLOCK SOL-HEX  MODEL: HEATX                                             TIME =      1.12

  *   WARNING WHILE EXECUTING UNIT OPERATIONS BLOCK: "SOL-HEX" (MODEL: "HEATX") 
                                                               (UHE02I.1)       
      AT LEAST ONE FEED HAS ZERO FLOW                                           
      BLOCK BYPASSED                                                            

      UOS BLOCK STRIPPER MODEL: RADFRAC                                           TIME =      1.12

       Convergence iterations:
         OL   ML   IL     Err/Tol
          1    1   10      1720.8    
          2    1   10      311.15    
          3    1   10      140.81    
          4    1    6      25.094    
          5   20  150      2640.8    
          6    1   10      116.55    
          7    1    4      472.10    
          8   11   67      1230.8    
          9    1    2      178.67    
         10   11   51      3200.9    
         11    1    2      3164.2    
         12    1    2      1493.0    
         13    1    2      20.542    
         14   11   68      1334.6    
         15    1    1      1267.7    
         16    1    2      113.07    
         17   10   46      3196.6    
         18    1    2      1492.9    
         19    1    2      124.89    
         20   20  150      10051.    
         21    1   10      4267.9    
         22    1   10      2232.3    
         23    1    7      2630.4    
         24    1    3      5056.6    
         25    1    5      27.102    

  *   WARNING WHILE EXECUTING UNIT OPERATIONS BLOCK: "STRIPPER" (MODEL:         
      "RADFRAC")                                               (UDL03K.2)       
      RADFRAC NOT CONVERGED IN  25 OUTSIDE LOOP ITERATIONS.                     

      RESULTS FOR MANIPULATED VARIABLES:
      VARIABLE     FINAL VALUE    LOWER BOUND    UPPER BOUND
         1         0.50000        0.50000         4.0000    
         2         0.99983        0.50000         4.0000    

  X-TRANS =   0  Y-TRANS =   0

       RateSep convergence iterations: STRIPPER
           Iter     Err/Tol
              0      596.03    
              1      625.06    
              2      478.79    
              3      229.10    
              4      38.310    
              5      29.704    
              6      3.1750    
              7     0.18835    
              8     0.19998E-01
              9     0.10724E-01
             10     0.73351E-03

      RESULTS FOR MANIPULATED VARIABLES:
      VARIABLE     FINAL VALUE    LOWER BOUND    UPPER BOUND
         1         0.25151        0.50000         4.0000    
         2         0.99892        0.50000         4.0000    

  *   WARNING WHILE EXECUTING UNIT OPERATIONS BLOCK: "STRIPPER" (MODEL:         
      "RADFRAC")                                               (RSF_RD3M.5)     
      DESIGN SPEC IS NOT SATISFIED BECAUSE ONE OR MORE MANIPULATED              
      VARIABLE VIOLATED ITS BOUND.                                              

      UOS BLOCK PUMP2    MODEL: PUMP                                              TIME =      1.84
      VOL-FLOW   =  0.2143     , DELTA P    =  0.2000E+05 , PUMP EFF   =  0.8437    
      FLUID PWR  =   4286.     , BRAKE PWR  =   5080.     , ELEC PWR   =   5080.    

      CONVERGENCE BLOCK $OLVER01  METHOD: WEGSTEIN                                TIME =      1.84
      ITER   1 For Tear Streams: LEANP2

  LOOP $OLVER01 ITER    1:  11 VARS NOT CONVERGED, MAX ERR/TOL     0.10000E+07    TIME =      1.84

      UOS BLOCK SOL-HEX  MODEL: HEATX                                             TIME =      1.84
      SPECIFICATION: COLD TEMP CHANGE      45.000    
      FLOW TYPE:     COUNTERCURRENT  
      HOT:  TIN=  398.22  PIN=0.21000E+06   TOUT=  353.67  POUT=0.21000E+06
      COLD: TIN=  321.15  PIN=0.21000E+06   TOUT=  366.15  POUT=0.21000E+06
                              DUTY=0.26177E+08

      UOS BLOCK STRIPPER MODEL: RADFRAC                                           TIME =      1.86

  *   WARNING WHILE EXECUTING UNIT OPERATIONS BLOCK: "STRIPPER" (MODEL:         
      "RADFRAC")                                               (UDL03D.11)      
      PREVIOUS SOLUTION VALUE OF MANIPULATED VARIABLE FOR "VARYNO= 1"           
      LIES OUTSIDE CURRENT LIMITS.  MANIPULATED VARIABLE IS RESET TO ITS        
      INITIAL VALUE.                                                            

  X-TRANS =   0  Y-TRANS =   0

       RateSep convergence iterations: STRIPPER
           Iter     Err/Tol
              0      124.85    
              1      186.70    
              2      229.91    
              3      238.65    
              4      338.27    
              5      302.88    
              6      264.95    
              7      224.69    
              8      182.02    
              9      136.66    
             10      87.907    
             11      33.687    
             12     0.22779    
             13     0.22191E-02

      UOS BLOCK PUMP2    MODEL: PUMP                                              TIME =      2.28
      VOL-FLOW   =  0.2143     , DELTA P    =  0.2000E+05 , PUMP EFF   =  0.8437    
      FLUID PWR  =   4286.     , BRAKE PWR  =   5080.     , ELEC PWR   =   5080.    

      CONVERGENCE BLOCK $OLVER01  METHOD: WEGSTEIN                                TIME =      2.28
      ITER   2 For Tear Streams: LEANP2

  LOOP $OLVER01 ITER    2:     *** CONVERGED *** , MAX ERR/TOL    -0.37095E-01    TIME =      2.28

      ENTHALPY CALCULATION FOR INLET STREAM MEA OF BLOCK MIXER                    TIME =      2.28
      KODE = 2  NTRIAL =   1  T =  313.150      P =  210000.      V =  0.00000      Q =  0.00000    

      ENTHALPY CALCULATION FOR INLET STREAM WATER OF BLOCK MIXER                  TIME =      2.28
      KODE = 2  NTRIAL =   2  T =  313.150      P =  210000.      V =  0.00000      Q =  0.00000    

      UOS BLOCK MIXER    MODEL: MIXER                                             TIME =      2.28
      KODE = 1  NTRIAL =  10  T =  351.490      P =  210000.      V =  0.00000      Q =  0.00000    

      UOS BLOCK SOL-COOL MODEL: HEATER                                            TIME =      2.28
      KODE = 2  NTRIAL =   3  T =  313.150      P =  210000.      V =  0.00000      Q =-2.292619E+07

      GENERATING RESULTS FOR UOS BLOCK COOLER1  MODEL: HEATER                     TIME =      2.29

      GENERATING RESULTS FOR UOS BLOCK COOLER   MODEL: HEATER                     TIME =      2.29

      GENERATING RESULTS FOR UOS BLOCK SOL-COOL MODEL: HEATER                     TIME =      2.29

      GENERATING RESULTS FOR UOS BLOCK SOL-HEX  MODEL: HEATX                      TIME =      2.29
      SPECIFICATION: COLD TEMP CHANGE      45.000    
      FLOW TYPE:     COUNTERCURRENT  
      HOT:  TIN=  398.22  PIN=0.21000E+06   TOUT=  353.67  POUT=0.21000E+06
      COLD: TIN=  321.15  PIN=0.21000E+06   TOUT=  366.15  POUT=0.21000E+06
      AREA= 975.75           DUTY=0.26177E+08       FT=1.00000

      BEGIN HEATX TQ-CURVE CALCULATIONS FOR BLOCK SOL-HEX 

      BEGIN COLD-TQCURVE INLET   
      H-LOOP : NTRIAL =   4 IFLAG = 1 VAR = 4.262083E-03
      KODE = 1  NTRIAL =   9  T =  366.148      P =  210000.      V = 4.262083E-03  Q =  0.00000    
      H-LOOP : NTRIAL =   4 IFLAG = 1 VAR = 3.381589E-03
      KODE = 1  NTRIAL =   6  T =  364.514      P =  210000.      V = 3.381589E-03  Q =  0.00000    
      H-LOOP : NTRIAL =   4 IFLAG = 1 VAR = 2.555139E-03
      KODE = 1  NTRIAL =   5  T =  362.839      P =  210000.      V = 2.555139E-03  Q =  0.00000    
      H-LOOP : NTRIAL =   3 IFLAG = 2 VAR =  361.126    
      KODE = 1  NTRIAL =   3  T =  361.126      P =  210000.      V = 1.777510E-03  Q =  0.00000    
      H-LOOP : NTRIAL =   4 IFLAG = 2 VAR =  359.375    
      KODE = 1  NTRIAL =   2  T =  359.375      P =  210000.      V = 1.045210E-03  Q =  0.00000    
      H-LOOP : NTRIAL =   5 IFLAG = 2 VAR =  357.575    
      KODE = 1  NTRIAL =   2  T =  357.575      P =  210000.      V = 3.736615E-04  Q =  0.00000    
      H-LOOP : NTRIAL =   5 IFLAG = 2 VAR =  355.550    
      KODE = 1  NTRIAL =   2  T =  355.550      P =  210000.      V = 4.229621E-05  Q =  0.00000    
      H-LOOP : NTRIAL =   5 IFLAG = 2 VAR =  353.324    
      KODE = 1  NTRIAL =   2  T =  353.324      P =  210000.      V = 1.250221E-05  Q =  0.00000    
      H-LOOP : NTRIAL =   8 IFLAG = 1 VAR = 5.382650E-06
      KODE = 1  NTRIAL =   3  T =  351.074      P =  210000.      V = 5.382650E-06  Q =  0.00000    
      H-LOOP : NTRIAL =   6 IFLAG = 1 VAR = 2.281626E-06
      KODE = 1  NTRIAL =   2  T =  348.814      P =  210000.      V = 2.281626E-06  Q =  0.00000    
      H-LOOP : NTRIAL =  11 IFLAG = 1 VAR = 5.673453E-07
      KODE = 1  NTRIAL =   3  T =  346.545      P =  210000.      V = 5.673453E-07  Q =  0.00000    
      H-LOOP : NTRIAL =   4 IFLAG = 2 VAR =  344.268    
      KODE = 1  NTRIAL =   1  T =  344.268      P =  210000.      V =  0.00000      Q =  0.00000    
      KODE = 3  NTRIAL =   9  T =  345.467      P =  210000.      V =  0.00000      Q =-1.305617E+07
      KODE = 1  NTRIAL =  25  T =  344.268      P =  210000.      V =  0.00000      Q =  0.00000    
      KODE = 1  NTRIAL =  15  T =  341.984      P =  210000.      V =  0.00000      Q =  0.00000    
      KODE = 1  NTRIAL =  15  T =  339.693      P =  210000.      V =  0.00000      Q =  0.00000    
      KODE = 1  NTRIAL =  15  T =  337.395      P =  210000.      V =  0.00000      Q =  0.00000    
      KODE = 1  NTRIAL =  14  T =  335.089      P =  210000.      V =  0.00000      Q =  0.00000    
      KODE = 1  NTRIAL =  14  T =  332.779      P =  210000.      V =  0.00000      Q =  0.00000    
      KODE = 1  NTRIAL =  14  T =  330.464      P =  210000.      V =  0.00000      Q =  0.00000    
      KODE = 1  NTRIAL =  14  T =  328.142      P =  210000.      V =  0.00000      Q =  0.00000    
      KODE = 1  NTRIAL =  14  T =  325.816      P =  210000.      V =  0.00000      Q =  0.00000    
      KODE = 1  NTRIAL =  14  T =  323.484      P =  210000.      V =  0.00000      Q =  0.00000    
      KODE = 1  NTRIAL =  13  T =  321.147      P =  210000.      V =  0.00000      Q =  0.00000    

      BEGIN HOT-TQCURVE  INLET   
      H-LOOP : NTRIAL =   4 IFLAG = 2 VAR =  398.216    
      KODE = 1  NTRIAL =   2  T =  398.216      P =  210000.      V =  0.00000      Q =  0.00000    
      H-LOOP : NTRIAL =   4 IFLAG = 2 VAR =  396.157    
      KODE = 1  NTRIAL =   2  T =  396.157      P =  210000.      V =  0.00000      Q =  0.00000    
      H-LOOP : NTRIAL =   5 IFLAG = 2 VAR =  394.074    
      KODE = 1  NTRIAL =   1  T =  394.074      P =  210000.      V =  0.00000      Q =  0.00000    
      H-LOOP : NTRIAL =   5 IFLAG = 2 VAR =  392.002    
      KODE = 1  NTRIAL =   1  T =  392.002      P =  210000.      V =  0.00000      Q =  0.00000    
      H-LOOP : NTRIAL =   5 IFLAG = 2 VAR =  389.923    
      KODE = 1  NTRIAL =   1  T =  389.923      P =  210000.      V =  0.00000      Q =  0.00000    
      H-LOOP : NTRIAL =   5 IFLAG = 2 VAR =  387.837    
      KODE = 1  NTRIAL =   1  T =  387.837      P =  210000.      V =  0.00000      Q =  0.00000    
      H-LOOP : NTRIAL =   5 IFLAG = 2 VAR =  385.744    
      KODE = 1  NTRIAL =   1  T =  385.744      P =  210000.      V =  0.00000      Q =  0.00000    
      H-LOOP : NTRIAL =   5 IFLAG = 2 VAR =  383.645    
      KODE = 1  NTRIAL =   1  T =  383.645      P =  210000.      V =  0.00000      Q =  0.00000    
      H-LOOP : NTRIAL =   5 IFLAG = 2 VAR =  381.541    
      KODE = 1  NTRIAL =   1  T =  381.541      P =  210000.      V =  0.00000      Q =  0.00000    
      H-LOOP : NTRIAL =   5 IFLAG = 2 VAR =  379.429    
      KODE = 1  NTRIAL =   2  T =  379.429      P =  210000.      V =  0.00000      Q =  0.00000    
      H-LOOP : NTRIAL =   5 IFLAG = 2 VAR =  377.313    
      KODE = 1  NTRIAL =   1  T =  377.313      P =  210000.      V =  0.00000      Q =  0.00000    
      H-LOOP : NTRIAL =   5 IFLAG = 2 VAR =  376.307    
      KODE = 1  NTRIAL =   1  T =  376.307      P =  210000.      V =  0.00000      Q =  0.00000    
      H-LOOP : NTRIAL =   5 IFLAG = 2 VAR =  375.190    
      KODE = 1  NTRIAL =   2  T =  375.190      P =  210000.      V =  0.00000      Q =  0.00000    
      H-LOOP : NTRIAL =   5 IFLAG = 2 VAR =  373.062    
      KODE = 1  NTRIAL =   2  T =  373.062      P =  210000.      V =  0.00000      Q =  0.00000    
      H-LOOP : NTRIAL =   5 IFLAG = 2 VAR =  370.928    
      KODE = 1  NTRIAL =   2  T =  370.928      P =  210000.      V =  0.00000      Q =  0.00000    
      H-LOOP : NTRIAL =   5 IFLAG = 2 VAR =  368.788    
      KODE = 1  NTRIAL =   2  T =  368.788      P =  210000.      V =  0.00000      Q =  0.00000    
      H-LOOP : NTRIAL =   5 IFLAG = 2 VAR =  366.644    
      KODE = 1  NTRIAL =   2  T =  366.644      P =  210000.      V =  0.00000      Q =  0.00000    
      H-LOOP : NTRIAL =   5 IFLAG = 2 VAR =  364.494    
      KODE = 1  NTRIAL =   2  T =  364.494      P =  210000.      V =  0.00000      Q =  0.00000    
      H-LOOP : NTRIAL =   6 IFLAG = 2 VAR =  362.340    
      KODE = 1  NTRIAL =   1  T =  362.340      P =  210000.      V =  0.00000      Q =  0.00000    
      H-LOOP : NTRIAL =   6 IFLAG = 2 VAR =  360.180    
      KODE = 1  NTRIAL =   1  T =  360.180      P =  210000.      V =  0.00000      Q =  0.00000    
      H-LOOP : NTRIAL =   6 IFLAG = 2 VAR =  358.016    
      KODE = 1  NTRIAL =   1  T =  358.016      P =  210000.      V =  0.00000      Q =  0.00000    
      H-LOOP : NTRIAL =   6 IFLAG = 2 VAR =  355.847    
      KODE = 1  NTRIAL =   1  T =  355.847      P =  210000.      V =  0.00000      Q =  0.00000    
      H-LOOP : NTRIAL =   6 IFLAG = 2 VAR =  353.673    
      KODE = 1  NTRIAL =   2  T =  353.673      P =  210000.      V =  0.00000      Q =  0.00000    

      BEGIN COLD-TQCURVE INLET   

      BEGIN HOT-TQCURVE  INLET   
      END HEATX TQ-CURVE CALCULATIONS FOR BLOCK SOL-HEX 

      GENERATING RESULTS FOR UOS BLOCK PUMP2    MODEL: PUMP                       TIME =      2.40
      KODE = 5  NTRIAL =   3  T =  398.208      P =  190000.      V =  0.00000      Q = 0.315388    
      VOL-FLOW   =  0.2143     , DELTA P    =  0.2000E+05 , PUMP EFF   =  0.8437    
      FLUID PWR  =   4286.     , BRAKE PWR  =   5080.     , ELEC PWR   =   5080.    
      NPSH AVAIL =   0.000    

      GENERATING RESULTS FOR UOS BLOCK PUMP1    MODEL: PUMP                       TIME =      2.41
      KODE = 5  NTRIAL =   3  T =  321.113      P =  117564.      V =  0.00000      Q = -190.363    
      VOL-FLOW   =  0.2013     , DELTA P    =  0.9000E+05 , PUMP EFF   =  0.8408    
      FLUID PWR  =  0.1812E+05 , BRAKE PWR  =  0.2155E+05 , ELEC PWR   =  0.2155E+05
      NPSH AVAIL =   1.970    

 Report Writer entered                                                            Time =      2.43

      BEGIN HEATX TQ-CURVE REPORT FOR BLOCK SOL-HEX 

      BEGIN COLD-TQCURVE INLET   

      BEGIN HOT-TQCURVE  INLET   
      END HEATX TQ-CURVE REPORT FOR BLOCK SOL-HEX 

 Results generated                                                                Time =      2.53

RUN SAVED



 *** SUMMARY OF ERRORS ***

                  PHYSICAL
                  PROPERTY  SYSTEM  SIMULATION
 TERMINAL ERRORS      0        0         0
   SEVERE ERRORS      0        0         0
          ERRORS      0        0         0
        WARNINGS      0        0         7

 *** CALCULATION TRACE ***


<set objective = None>


*** INPUT SPECIFICATION MESSAGES ***

 BLOCK        ABSORBER IS GENERATED BECAUSE OF OTHER CHANGES 05/27/2025   12:37:28:99 
 BLOCK ABSORBER RADFRAC
     SUBOBJECTS INTERNALS = CS-1
     PARAM NSTAGE=10 ALGORITHM=STANDARD MAXOL=25 DAMPING=NONE
     PARAM2 STATIC-DP=NO OLD-SULZER=NO
     COL-CONFIG CONDENSER=NONE REBOILER=NONE CA-CONFIG=INT-1
     RATESEP-ENAB CALC-MODE=RIG-RATE
     FEEDS FLUEABS 10 ON-STAGE / LEANABS 1 ON-STAGE
     PRODUCTS RICHMEA 10 L / TREATGAS 1 V
     P-SPEC 1 1.200000000
     COL-SPECS
     INTERNALS CS-1 STAGE1=1 STAGE2=10 INTERNAL=PACKING  &
         SIZING=RATING RATE-BASE=YES P-UPDATE=NO DIAM=6.  &
         PACKTYPE=MELLAPAK VENDOR=SULZER PACK-MAT=STANDARD  &
         PACK-SIZE="250X" MTRFC-CORP=BRF-85 INTFA-CORP=BRF-85  &
         PACK-HT=8. THETA=60
     PACK-RATE 1 1 10 MELLAPAK
     PACK-RATE2 1

 CHANGES WERE MADE TO BLOCK        STRIPPER 05/27/2025   12:37:28:99 
 BLOCK STRIPPER RADFRAC
     SUBOBJECTS INTERNALS = CS-1
     PARAM NSTAGE=12 ALGORITHM=STANDARD MAXOL=25 DAMPING=NONE
     PARAM2 STATIC-DP=NO OLD-SULZER=NO
     COL-CONFIG CONDENSER=PARTIAL-V CA-CONFIG=INT-1
     RATESEP-ENAB CALC-MODE=RIG-RATE
     FEEDS RICHSTPR 6 ON-STAGE
     PRODUCTS LEANSTPR 12 L / CO2 1 V
     P-SPEC 1 1.9
     COL-SPECS B:F=0.94 MOLE-RR=1.8
     SPEC 1 MOLE-FRAC 0.99 COMPS=CO2 STREAMS=CO2  &
         SPEC-DESCRIP="Mole purity, 0.99, PRODUCT"
     SPEC 2 MASS-FLOW 48572. COMPS=CO2 STREAMS=CO2  &
         SPEC-DESCRIP="Mass flow, 48572., PRODUCT"
     VARY 1 MOLE-RR 0.5 4.
     VARY 2 B:F 0.5 4.
     INTERNALS CS-1 STAGE1=2 STAGE2=11 INTERNAL=PACKING  &
         SIZING=RATING RATE-BASE=YES P-UPDATE=NO DIAM=6.  &
         PACKTYPE=MELLAPAK VENDOR=SULZER PACK-MAT=STANDARD  &
         PACK-SIZE="250X" MTRFC-CORP=BRF-85 INTFA-CORP=BRF-85  &
         PACK-HT=8. THETA=60
     PACK-RATE 1 2 11 MELLAPAK
     PACK-RATE2 1

 PDF updated                                                                      TIME =    433.88
 THIS COPY OF ASPEN PLUS LICENSED TO TECHNISCHE UNIVERSITEIT         
 
 DESIGN SPEC: MEACON WILL BE INTERPRETED 
 DESIGN SPEC: RECOVERY WILL BE INTERPRETED 
 

Calculations begin                                                              time    435.54


      UOS BLOCK ABSORBER MODEL: RADFRAC                                           TIME =    435.54

  X-TRANS =   0  Y-TRANS =   0

       RateSep convergence iterations: ABSORBER
           Iter     Err/Tol
              0     0.19846E-03

      CONVERGENCE BLOCK $OLVER03  METHOD: SECANT                                  TIME =    435.86
      ITER   0 For Specs:        RECOVERY

      CONVERGENCE BLOCK $OLVER03  METHOD: SECANT                                  TIME =    435.86
      ITER   1 For Specs:        RECOVERY
      SPEC   1 ERROR =  0.18897E-04                          X =   6.6253    

  LOOP $OLVER03 ITER    1:     *** CONVERGED *** , MAX ERR/TOL     0.18897        TIME =    435.88

      UOS BLOCK PUMP1    MODEL: PUMP                                              TIME =    435.91
      VOL-FLOW   =  0.2013     , DELTA P    =  0.9000E+05 , PUMP EFF   =  0.8408    
      FLUID PWR  =  0.1812E+05 , BRAKE PWR  =  0.2155E+05 , ELEC PWR   =  0.2155E+05

      CONVERGENCE BLOCK $OLVER01  METHOD: WEGSTEIN                                TIME =    435.91
      ITER   0 For Tear Streams: LEANP2

      UOS BLOCK SOL-HEX  MODEL: HEATX                                             TIME =    435.91
      SPECIFICATION: COLD TEMP CHANGE      45.000    
      FLOW TYPE:     COUNTERCURRENT  
      HOT:  TIN=  398.22  PIN=0.21000E+06   TOUT=  353.68  POUT=0.21000E+06
      COLD: TIN=  321.14  PIN=0.21000E+06   TOUT=  366.14  POUT=0.21000E+06
                              DUTY=0.26176E+08

      UOS BLOCK STRIPPER MODEL: RADFRAC                                           TIME =    435.92

  X-TRANS =   0  Y-TRANS =   0

       RateSep convergence iterations: STRIPPER
           Iter     Err/Tol
              0      3.1264    
              1      20.331    
              2      3.6167    
              3     0.38905E-01

      UOS BLOCK PUMP2    MODEL: PUMP                                              TIME =    436.15
      VOL-FLOW   =  0.2144     , DELTA P    =  0.2000E+05 , PUMP EFF   =  0.8437    
      FLUID PWR  =   4287.     , BRAKE PWR  =   5081.     , ELEC PWR   =   5081.    

      CONVERGENCE BLOCK $OLVER01  METHOD: WEGSTEIN                                TIME =    436.15
      ITER   1 For Tear Streams: LEANP2

  LOOP $OLVER01 ITER    1:   7 VARS NOT CONVERGED, MAX ERR/TOL      9.3787        TIME =    436.15

      UOS BLOCK SOL-HEX  MODEL: HEATX                                             TIME =    436.15
      SPECIFICATION: COLD TEMP CHANGE      45.000    
      FLOW TYPE:     COUNTERCURRENT  
      HOT:  TIN=  398.21  PIN=0.21000E+06   TOUT=  353.69  POUT=0.21000E+06
      COLD: TIN=  321.14  PIN=0.21000E+06   TOUT=  366.14  POUT=0.21000E+06
                              DUTY=0.26176E+08

      UOS BLOCK STRIPPER MODEL: RADFRAC                                           TIME =    436.16

  X-TRANS =   0  Y-TRANS =   0

       RateSep convergence iterations: STRIPPER
           Iter     Err/Tol
              0     0.42430E-01
              1     0.40858E-05

      UOS BLOCK PUMP2    MODEL: PUMP                                              TIME =    436.27
      VOL-FLOW   =  0.2144     , DELTA P    =  0.2000E+05 , PUMP EFF   =  0.8437    
      FLUID PWR  =   4287.     , BRAKE PWR  =   5081.     , ELEC PWR   =   5081.    

      CONVERGENCE BLOCK $OLVER01  METHOD: WEGSTEIN                                TIME =    436.27
      ITER   2 For Tear Streams: LEANP2

  LOOP $OLVER01 ITER    2:     *** CONVERGED *** , MAX ERR/TOL    -0.13859E-08    TIME =    436.27

      UOS BLOCK MIXER    MODEL: MIXER                                             TIME =    436.27
      KODE = 1  NTRIAL =   9  T =  351.503      P =  210000.      V =  0.00000      Q =  0.00000    

      UOS BLOCK SOL-COOL MODEL: HEATER                                            TIME =    436.28
      KODE = 2  NTRIAL =   3  T =  313.150      P =  210000.      V =  0.00000      Q =-2.294269E+07

      GENERATING RESULTS FOR UOS BLOCK SOL-COOL MODEL: HEATER                     TIME =    436.28

      GENERATING RESULTS FOR UOS BLOCK SOL-HEX  MODEL: HEATX                      TIME =    436.28
      SPECIFICATION: COLD TEMP CHANGE      45.000    
      FLOW TYPE:     COUNTERCURRENT  
      HOT:  TIN=  398.21  PIN=0.21000E+06   TOUT=  353.68  POUT=0.21000E+06
      COLD: TIN=  321.15  PIN=0.21000E+06   TOUT=  366.15  POUT=0.21000E+06
      AREA= 975.67           DUTY=0.26177E+08       FT=1.00000

      BEGIN HEATX TQ-CURVE CALCULATIONS FOR BLOCK SOL-HEX 

      BEGIN COLD-TQCURVE INLET   
      H-LOOP : NTRIAL =   4 IFLAG = 1 VAR = 4.262129E-03
      KODE = 1  NTRIAL =   9  T =  366.148      P =  210000.      V = 4.262129E-03  Q =  0.00000    
      H-LOOP : NTRIAL =   4 IFLAG = 1 VAR = 3.381623E-03
      KODE = 1  NTRIAL =   6  T =  364.514      P =  210000.      V = 3.381623E-03  Q =  0.00000    
      H-LOOP : NTRIAL =   4 IFLAG = 1 VAR = 2.555164E-03
      KODE = 1  NTRIAL =   5  T =  362.839      P =  210000.      V = 2.555164E-03  Q =  0.00000    
      H-LOOP : NTRIAL =   3 IFLAG = 2 VAR =  361.126    
      KODE = 1  NTRIAL =   3  T =  361.126      P =  210000.      V = 1.777526E-03  Q =  0.00000    
      H-LOOP : NTRIAL =   4 IFLAG = 2 VAR =  359.375    
      KODE = 1  NTRIAL =   2  T =  359.375      P =  210000.      V = 1.045218E-03  Q =  0.00000    
      H-LOOP : NTRIAL =   5 IFLAG = 2 VAR =  357.575    
      KODE = 1  NTRIAL =   2  T =  357.575      P =  210000.      V = 3.736625E-04  Q =  0.00000    
      H-LOOP : NTRIAL =   5 IFLAG = 2 VAR =  355.550    
      KODE = 1  NTRIAL =   2  T =  355.550      P =  210000.      V = 4.229562E-05  Q =  0.00000    
      H-LOOP : NTRIAL =   5 IFLAG = 2 VAR =  353.324    
      KODE = 1  NTRIAL =   2  T =  353.324      P =  210000.      V = 1.250201E-05  Q =  0.00000    
      H-LOOP : NTRIAL =   8 IFLAG = 1 VAR = 5.382530E-06
      KODE = 1  NTRIAL =   3  T =  351.074      P =  210000.      V = 5.382530E-06  Q =  0.00000    
      H-LOOP : NTRIAL =   6 IFLAG = 1 VAR = 2.281544E-06
      KODE = 1  NTRIAL =   2  T =  348.814      P =  210000.      V = 2.281544E-06  Q =  0.00000    
      H-LOOP : NTRIAL =  11 IFLAG = 1 VAR = 5.672829E-07
      KODE = 1  NTRIAL =   3  T =  346.545      P =  210000.      V = 5.672829E-07  Q =  0.00000    
      H-LOOP : NTRIAL =   4 IFLAG = 2 VAR =  344.268    
      KODE = 1  NTRIAL =   1  T =  344.268      P =  210000.      V =  0.00000      Q =  0.00000    
      KODE = 3  NTRIAL =   9  T =  345.467      P =  210000.      V =  0.00000      Q =-1.305623E+07
      KODE = 1  NTRIAL =  25  T =  344.267      P =  210000.      V =  0.00000      Q =  0.00000    
      KODE = 1  NTRIAL =  15  T =  341.984      P =  210000.      V =  0.00000      Q =  0.00000    
      KODE = 1  NTRIAL =  15  T =  339.692      P =  210000.      V =  0.00000      Q =  0.00000    
      KODE = 1  NTRIAL =  15  T =  337.394      P =  210000.      V =  0.00000      Q =  0.00000    
      KODE = 1  NTRIAL =  14  T =  335.089      P =  210000.      V =  0.00000      Q =  0.00000    
      KODE = 1  NTRIAL =  14  T =  332.779      P =  210000.      V =  0.00000      Q =  0.00000    
      KODE = 1  NTRIAL =  14  T =  330.463      P =  210000.      V =  0.00000      Q =  0.00000    
      KODE = 1  NTRIAL =  14  T =  328.142      P =  210000.      V =  0.00000      Q =  0.00000    
      KODE = 1  NTRIAL =  14  T =  325.815      P =  210000.      V =  0.00000      Q =  0.00000    
      KODE = 1  NTRIAL =  14  T =  323.484      P =  210000.      V =  0.00000      Q =  0.00000    
      KODE = 1  NTRIAL =  13  T =  321.147      P =  210000.      V =  0.00000      Q =  0.00000    

      BEGIN HOT-TQCURVE  INLET   
      H-LOOP : NTRIAL =   4 IFLAG = 2 VAR =  398.211    
      KODE = 1  NTRIAL =   2  T =  398.211      P =  210000.      V =  0.00000      Q =  0.00000    
      H-LOOP : NTRIAL =   4 IFLAG = 2 VAR =  396.152    
      KODE = 1  NTRIAL =   2  T =  396.152      P =  210000.      V =  0.00000      Q =  0.00000    
      H-LOOP : NTRIAL =   5 IFLAG = 2 VAR =  394.070    
      KODE = 1  NTRIAL =   1  T =  394.070      P =  210000.      V =  0.00000      Q =  0.00000    
      H-LOOP : NTRIAL =   5 IFLAG = 2 VAR =  391.999    
      KODE = 1  NTRIAL =   1  T =  391.999      P =  210000.      V =  0.00000      Q =  0.00000    
      H-LOOP : NTRIAL =   5 IFLAG = 2 VAR =  389.920    
      KODE = 1  NTRIAL =   1  T =  389.920      P =  210000.      V =  0.00000      Q =  0.00000    
      H-LOOP : NTRIAL =   5 IFLAG = 2 VAR =  387.835    
      KODE = 1  NTRIAL =   1  T =  387.835      P =  210000.      V =  0.00000      Q =  0.00000    
      H-LOOP : NTRIAL =   5 IFLAG = 2 VAR =  385.743    
      KODE = 1  NTRIAL =   1  T =  385.743      P =  210000.      V =  0.00000      Q =  0.00000    
      H-LOOP : NTRIAL =   5 IFLAG = 2 VAR =  383.645    
      KODE = 1  NTRIAL =   1  T =  383.645      P =  210000.      V =  0.00000      Q =  0.00000    
      H-LOOP : NTRIAL =   5 IFLAG = 2 VAR =  381.541    
      KODE = 1  NTRIAL =   2  T =  381.541      P =  210000.      V =  0.00000      Q =  0.00000    
      H-LOOP : NTRIAL =   5 IFLAG = 2 VAR =  379.431    
      KODE = 1  NTRIAL =   2  T =  379.431      P =  210000.      V =  0.00000      Q =  0.00000    
      H-LOOP : NTRIAL =   5 IFLAG = 2 VAR =  377.315    
      KODE = 1  NTRIAL =   2  T =  377.315      P =  210000.      V =  0.00000      Q =  0.00000    
      H-LOOP : NTRIAL =   5 IFLAG = 2 VAR =  376.310    
      KODE = 1  NTRIAL =   1  T =  376.310      P =  210000.      V =  0.00000      Q =  0.00000    
      H-LOOP : NTRIAL =   5 IFLAG = 2 VAR =  375.193    
      KODE = 1  NTRIAL =   2  T =  375.193      P =  210000.      V =  0.00000      Q =  0.00000    
      H-LOOP : NTRIAL =   5 IFLAG = 2 VAR =  373.066    
      KODE = 1  NTRIAL =   2  T =  373.066      P =  210000.      V =  0.00000      Q =  0.00000    
      H-LOOP : NTRIAL =   5 IFLAG = 2 VAR =  370.933    
      KODE = 1  NTRIAL =   2  T =  370.933      P =  210000.      V =  0.00000      Q =  0.00000    
      H-LOOP : NTRIAL =   5 IFLAG = 2 VAR =  368.794    
      KODE = 1  NTRIAL =   2  T =  368.794      P =  210000.      V =  0.00000      Q =  0.00000    
      H-LOOP : NTRIAL =   5 IFLAG = 2 VAR =  366.651    
      KODE = 1  NTRIAL =   2  T =  366.651      P =  210000.      V =  0.00000      Q =  0.00000    
      H-LOOP : NTRIAL =   5 IFLAG = 2 VAR =  364.502    
      KODE = 1  NTRIAL =   2  T =  364.502      P =  210000.      V =  0.00000      Q =  0.00000    
      H-LOOP : NTRIAL =   6 IFLAG = 2 VAR =  362.348    
      KODE = 1  NTRIAL =   1  T =  362.348      P =  210000.      V =  0.00000      Q =  0.00000    
      H-LOOP : NTRIAL =   6 IFLAG = 2 VAR =  360.189    
      KODE = 1  NTRIAL =   1  T =  360.189      P =  210000.      V =  0.00000      Q =  0.00000    
      H-LOOP : NTRIAL =   6 IFLAG = 2 VAR =  358.026    
      KODE = 1  NTRIAL =   1  T =  358.026      P =  210000.      V =  0.00000      Q =  0.00000    
      H-LOOP : NTRIAL =   6 IFLAG = 2 VAR =  355.858    
      KODE = 1  NTRIAL =   1  T =  355.858      P =  210000.      V =  0.00000      Q =  0.00000    
      H-LOOP : NTRIAL =   6 IFLAG = 2 VAR =  353.685    
      KODE = 1  NTRIAL =   2  T =  353.685      P =  210000.      V =  0.00000      Q =  0.00000    

      BEGIN COLD-TQCURVE INLET   

      BEGIN HOT-TQCURVE  INLET   
      END HEATX TQ-CURVE CALCULATIONS FOR BLOCK SOL-HEX 

      GENERATING RESULTS FOR UOS BLOCK PUMP2    MODEL: PUMP                       TIME =    436.51
      KODE = 5  NTRIAL =   3  T =  398.202      P =  190000.      V =  0.00000      Q = 0.757261    
      VOL-FLOW   =  0.2144     , DELTA P    =  0.2000E+05 , PUMP EFF   =  0.8437    
      FLUID PWR  =   4287.     , BRAKE PWR  =   5081.     , ELEC PWR   =   5081.    
      NPSH AVAIL =   0.000    

      GENERATING RESULTS FOR UOS BLOCK PUMP1    MODEL: PUMP                       TIME =    436.51
      KODE = 5  NTRIAL =   3  T =  321.113      P =  117564.      V =  0.00000      Q = -190.363    
      VOL-FLOW   =  0.2013     , DELTA P    =  0.9000E+05 , PUMP EFF   =  0.8408    
      FLUID PWR  =  0.1812E+05 , BRAKE PWR  =  0.2155E+05 , ELEC PWR   =  0.2155E+05
      NPSH AVAIL =   1.970    

 Report Writer entered                                                            Time =    436.52

      BEGIN HEATX TQ-CURVE REPORT FOR BLOCK SOL-HEX 

      BEGIN COLD-TQCURVE INLET   

      BEGIN HOT-TQCURVE  INLET   
      END HEATX TQ-CURVE REPORT FOR BLOCK SOL-HEX 

 Results generated                                                                Time =    436.74


*** INPUT SPECIFICATION MESSAGES ***

 CHANGES WERE MADE TO STREAM       FLUEGAS  05/27/2025   13:03:28:99 
 STREAM FLUEGAS
     SUBSTREAM MIXED TEMP=160.0000000 PRES=1.013000000  &
         MOLE-FLOW=620. <mol/sec>
     MOLE-FRAC H2O 0.182 / CO2 0.178 / N2 0.565 / O2 0.075

 CHANGES WERE MADE TO BLOCK        ABSORBER 05/27/2025   13:03:28:99 
 BLOCK ABSORBER RADFRAC
     SUBOBJECTS INTERNALS = CS-1
     PARAM NSTAGE=10 ALGORITHM=STANDARD MAXOL=25 DAMPING=NONE
     PARAM2 STATIC-DP=NO OLD-SULZER=NO
     COL-CONFIG CONDENSER=NONE REBOILER=NONE CA-CONFIG=INT-1
     RATESEP-ENAB CALC-MODE=RIG-RATE
     FEEDS FLUEABS 10 ON-STAGE / LEANABS 1 ON-STAGE
     PRODUCTS RICHMEA 10 L / TREATGAS 1 V
[...]

      UOS BLOCK MIXER    MODEL: MIXER                                             TIME =    200.47
      KODE = 1  NTRIAL =   2  T =  356.845      P =  210000.      V =  0.00000      Q =  0.00000    

      UOS BLOCK SOL-COOL MODEL: HEATER                                            TIME =    200.47
      KODE = 2  NTRIAL =   2  T =  313.150      P =  210000.      V =  0.00000      Q =-9.970412E+06

      GENERATING RESULTS FOR UOS BLOCK SOL-COOL MODEL: HEATER                     TIME =    200.47

 Report Writer entered                                                            Time =    200.48

      BEGIN HEATX TQ-CURVE REPORT FOR BLOCK SOL-HEX 

      BEGIN COLD-TQCURVE INLET   

      BEGIN HOT-TQCURVE  INLET   
      END HEATX TQ-CURVE REPORT FOR BLOCK SOL-HEX 

      INFORMATION WHILE GENERATING REPORT FOR UNIT OPERATIONS BLOCK: "STRIPPER" 
      (MODEL: "RADFRAC")                                       (PCKWRT.8172)    
        112.96%   FLOOD IN COLUMN STRIPPER, OPTION INT-1   ,                    
      SECTION CS-1     EXCEEDS 80%.                                             

 Results generated                                                                Time =    200.63

RUN SAVED



 *** SUMMARY OF ERRORS ***

                  PHYSICAL
                  PROPERTY  SYSTEM  SIMULATION
 TERMINAL ERRORS      0        0         0
   SEVERE ERRORS      0        0         0
          ERRORS      0        0         0
        WARNINGS      0        0         2


 *** SUMMARY OF ERRORS ***

                  PHYSICAL
                  PROPERTY  SYSTEM  SIMULATION
 TERMINAL ERRORS      0        0         0
   SEVERE ERRORS      0        0         0
          ERRORS      0        0         0
        WARNINGS      0        0         2
<reset scope>
<reset scope>
<reset scope>
<reset scope>


*** INPUT SPECIFICATION MESSAGES ***

 CHANGES WERE MADE TO BLOCK        ABSORBER 06/02/2025   21:05:50:99 
 BLOCK ABSORBER RADFRAC
     SUBOBJECTS INTERNALS = CS-1
     PARAM NSTAGE=10 ALGORITHM=STANDARD MAXOL=25 DAMPING=NONE
     PARAM2 STATIC-DP=NO OLD-SULZER=NO
     COL-CONFIG CONDENSER=NONE REBOILER=NONE CA-CONFIG=INT-1
     RATESEP-ENAB CALC-MODE=RIG-RATE
     FEEDS FLUEABS 10 ON-STAGE / LEAN-MEA 1 ON-STAGE
     PRODUCTS RICHMEA 10 L / TREATGAS 1 V
     P-SPEC 1 1.200000000
     COL-SPECS
     INTERNALS CS-1 STAGE1=1 STAGE2=10 INTERNAL=PACKING  &
         SIZING=RATING RATE-BASE=YES P-UPDATE=NO DIAM=3.  &
         PACKTYPE=MELLAPAK VENDOR=SULZER PACK-MAT=STANDARD  &
         PACK-SIZE="250X" MTRFC-CORP=BRF-85 INTFA-CORP=BRF-85  &
         PACK-HT=4.5 THETA=60
     PACK-RATE 1 1 10 MELLAPAK
     PACK-RATE2 1

 CHANGES WERE MADE TO DESIGN-SPEC  MEACON   06/02/2025   21:05:50:99 
 DESIGN-SPEC MEACON
     DEFINE MEACON MASS-FLOW STREAM=LEAN-MEA SUBSTREAM=MIXED  &
         COMPONENT=MEA UOM="kg/hr"
     DEFINE WATER MASS-FLOW STREAM=LEAN-MEA SUBSTREAM=MIXED  &
         COMPONENT=H2O UOM="kg/hr"
     SPEC "MEACON / (MEACON+WATER)" TO "0.3"
     TOL-SPEC "0.0001"
     VARY STREAM-VAR STREAM=WATER SUBSTREAM=MIXED  &
         VARIABLE=MASS-FLOW UOM="kg/hr"
     LIMITS "1000" "1000000"

 CHANGES WERE MADE TO DESIGN-SPEC  RECOVERY 06/02/2025   21:05:50:99 
 DESIGN-SPEC RECOVERY
     DEFINE CO2IN MOLE-FLOW STREAM=FLUEABS SUBSTREAM=MIXED  &
         COMPONENT=CO2 UOM="kmol/sec"
     DEFINE CO2OUT MOLE-FLOW STREAM=TREATGAS SUBSTREAM=MIXED  &
         COMPONENT=CO2 UOM="kmol/sec"
     SPEC "(CO2IN-CO2OUT)/CO2IN" TO "0.85"
     TOL-SPEC "0.0001"
     VARY STREAM-VAR STREAM=MEA SUBSTREAM=MIXED  &
         VARIABLE=MASS-FLOW UOM="kg/hr"
     LIMITS "1" "1000"

 FLOWSHEET    IS  NEW 06/02/2025   21:05:50:99 
 FLOWSHEET
     BLOCK COOLER1 IN=FLUEBLOW OUT=FLUEABS
     BLOCK BLOWER IN=FLUESEP OUT=FLUEBLOW
     BLOCK SEP IN=FLUECOOL OUT=FLUESEP SEPOUT
     BLOCK COOLER IN=FLUEGAS OUT=FLUECOOL
     BLOCK ABSORBER IN=FLUEABS LEAN-MEA OUT=TREATGAS RICHMEA
     BLOCK SOL-COOL IN=LEANMEX OUT=LEAN-MEA
     BLOCK MIXER IN=LEANSTRC MEA WATER OUT=LEANMEX
     BLOCK STRIPPER IN=RICHSTPR OUT=CO2 LEANSTPR
     BLOCK SOL-HEX IN=LEANP2 RICHP1 OUT=LEANSTRC RICHSTPR
     BLOCK PUMP2 IN=LEANSTPR OUT=LEANP2
     BLOCK PUMP1 IN=RICHMEA OUT=RICHP1

 PDF updated                                                                      TIME =    309.59
 THIS COPY OF ASPEN PLUS LICENSED TO TECHNISCHE UNIVERSITEIT         
 
 DESIGN SPEC: MEACON WILL BE INTERPRETED 
 DESIGN SPEC: RECOVERY WILL BE INTERPRETED 
 
 *** FLOWSHEET ANALYSIS MESSAGES ***
 CONVERGENCE BLOCK $OLVER11 FOR DESIGN SPEC MEACON   IS DELETED
 CONVERGENCE BLOCK $OLVER12 FOR DESIGN SPEC RECOVERY IS DELETED

 FLOWSHEET CONNECTIVITY BY STREAMS       

   STREAM     SOURCE     DEST           STREAM     SOURCE     DEST
   FLUEGAS    ----       COOLER         WATER      ----       MIXER   
   MEA        ----       MIXER          FLUEABS    COOLER1    ABSORBER
   FLUEBLOW   BLOWER     COOLER1        FLUESEP    SEP        BLOWER  
   SEPOUT     SEP        ----           FLUECOOL   COOLER     SEP     
   TREATGAS   ABSORBER   ----           RICHMEA    ABSORBER   PUMP1   
   LEAN-MEA   SOL-COOL   ABSORBER       LEANMEX    MIXER      SOL-COOL
   CO2        STRIPPER   ----           LEANSTPR   STRIPPER   PUMP2   
   LEANSTRC   SOL-HEX    MIXER          RICHSTPR   SOL-HEX    STRIPPER
   LEANP2     PUMP2      SOL-HEX        RICHP1     PUMP1      SOL-HEX 

 FLOWSHEET CONNECTIVITY BY BLOCKS        

   BLOCK        INLETS                         OUTLETS
   COOLER1      FLUEBLOW                       FLUEABS                     
   BLOWER       FLUESEP                        FLUEBLOW                    
   SEP          FLUECOOL                       FLUESEP SEPOUT              
   COOLER       FLUEGAS                        FLUECOOL                    
   ABSORBER     FLUEABS LEAN-MEA               TREATGAS RICHMEA            
   SOL-COOL     LEANMEX                        LEAN-MEA                    
   MIXER        LEANSTRC MEA WATER             LEANMEX                     
   STRIPPER     RICHSTPR                       CO2 LEANSTPR                
   SOL-HEX      LEANP2 RICHP1                  LEANSTRC RICHSTPR           
   PUMP2        LEANSTPR                       LEANP2                      
   PUMP1        RICHMEA                        RICHP1                      

      BLOCK $OLVER13 (METHOD: WEGSTEIN) HAS BEEN DEFINED TO CONVERGE
               STREAMS: RICHMEA   LEANP2

      BLOCK $OLVER14 (METHOD: SECANT  ) HAS BEEN DEFINED TO CONVERGE
                SPECS : MEACON

      BLOCK $OLVER15 (METHOD: SECANT  ) HAS BEEN DEFINED TO CONVERGE
                SPECS : RECOVERY

      COMPUTATION ORDER FOR THE FLOWSHEET IS:
      COOLER SEP BLOWER COOLER1 
      $OLVER13 PUMP1 SOL-HEX 
      |  $OLVER15 
      |  |  $OLVER14 MIXER SOL-COOL 
      |  |  (RETURN $OLVER14) 
      |  |  ABSORBER 
      |  (RETURN $OLVER15) 
      |  STRIPPER PUMP2 
      (RETURN $OLVER13) 


Calculations begin                                                              time    309.62


      CONVERGENCE BLOCK $OLVER13  METHOD: WEGSTEIN                                TIME =    309.62
      ITER   0 For Tear Streams: RICHMEA   LEANP2

      CONVERGENCE BLOCK $OLVER15  METHOD: SECANT                                  TIME =    309.62
      ITER   0 For Specs:        RECOVERY

      CONVERGENCE BLOCK $OLVER14  METHOD: SECANT                                  TIME =    309.62
      ITER   0 For Specs:        MEACON

      CONVERGENCE BLOCK $OLVER14  METHOD: SECANT                                  TIME =    309.62
      ITER   1 For Specs:        MEACON
      SPEC   1 ERROR =  0.59530E-04                          X =  0.12351    

  LOOP $OLVER14 ITER    1:     *** CONVERGED *** , MAX ERR/TOL     0.59530        TIME =    309.62

      UOS BLOCK ABSORBER MODEL: RADFRAC                                           TIME =    309.62

  X-TRANS =   0  Y-TRANS =   0

       RateSep convergence iterations: ABSORBER
           Iter     Err/Tol
              0     0.63932E-01
              1     0.70889E-04

      CONVERGENCE BLOCK $OLVER15  METHOD: SECANT                                  TIME =    309.69
      ITER   1 For Specs:        RECOVERY
      SPEC   1 ERROR =  0.61106E-04                          X =  0.13870E-03

  LOOP $OLVER15 ITER    1:     *** CONVERGED *** , MAX ERR/TOL     0.61106        TIME =    309.69

      CONVERGENCE BLOCK $OLVER13  METHOD: WEGSTEIN                                TIME =    309.70
      ITER   1 For Tear Streams: RICHMEA   LEANP2

  LOOP $OLVER13 ITER    1:   3 VARS NOT CONVERGED, MAX ERR/TOL     -4.9903        TIME =    309.70

      UOS BLOCK PUMP1    MODEL: PUMP                                              TIME =    309.70
      VOL-FLOW   =  0.8058E-01 , DELTA P    =  0.9000E+05 , PUMP EFF   =  0.7881    
      FLUID PWR  =   7252.     , BRAKE PWR  =   9203.     , ELEC PWR   =   9203.    

      UOS BLOCK SOL-HEX  MODEL: HEATX                                             TIME =    309.70
      SPECIFICATION: COLD TEMP CHANGE      40.000    
      FLOW TYPE:     COUNTERCURRENT  
      HOT:  TIN=  398.32  PIN=0.21000E+06   TOUT=  358.55  POUT=0.21000E+06
      COLD: TIN=  329.33  PIN=0.21000E+06   TOUT=  369.33  POUT=0.21000E+06
                              DUTY=0.91134E+07

      CONVERGENCE BLOCK $OLVER15  METHOD: SECANT                                  TIME =    309.71
      ITER   0 For Specs:        RECOVERY

      CONVERGENCE BLOCK $OLVER14  METHOD: SECANT                                  TIME =    309.71
      ITER   0 For Specs:        MEACON

      UOS BLOCK MIXER    MODEL: MIXER                                             TIME =    309.71
      KODE = 1  NTRIAL =   2  T =  356.847      P =  210000.      V =  0.00000      Q =  0.00000    

      UOS BLOCK SOL-COOL MODEL: HEATER                                            TIME =    309.71
      KODE = 2  NTRIAL =   2  T =  313.150      P =  210000.      V =  0.00000      Q =-9.970923E+06

      CONVERGENCE BLOCK $OLVER14  METHOD: SECANT                                  TIME =    309.71
      ITER   1 For Specs:        MEACON
      SPEC   1 ERROR =  0.59530E-04                          X =  0.12351    

  LOOP $OLVER14 ITER    1:     *** CONVERGED *** , MAX ERR/TOL     0.59530        TIME =    309.71

      UOS BLOCK ABSORBER MODEL: RADFRAC                                           TIME =    309.71

  X-TRANS =   0  Y-TRANS =   0

       RateSep convergence iterations: ABSORBER
           Iter     Err/Tol
              0     0.70756E-04

      CONVERGENCE BLOCK $OLVER15  METHOD: SECANT                                  TIME =    309.77
      ITER   1 For Specs:        RECOVERY
      SPEC   1 ERROR =  0.61106E-04                          X =  0.13870E-03

  LOOP $OLVER15 ITER    1:     *** CONVERGED *** , MAX ERR/TOL     0.61106        TIME =    309.78

      UOS BLOCK STRIPPER MODEL: RADFRAC                                           TIME =    309.78

  X-TRANS =   0  Y-TRANS =   0

       RateSep convergence iterations: STRIPPER
           Iter     Err/Tol
              0     0.60644E-01
              1     0.92435E-05

      UOS BLOCK PUMP2    MODEL: PUMP                                              TIME =    309.91
      VOL-FLOW   =  0.8524E-01 , DELTA P    =  0.2000E+05 , PUMP EFF   =  0.7919    
      FLUID PWR  =   1705.     , BRAKE PWR  =   2153.     , ELEC PWR   =   2153.    

      CONVERGENCE BLOCK $OLVER13  METHOD: WEGSTEIN                                TIME =    309.91
      ITER   2 For Tear Streams: RICHMEA   LEANP2

  LOOP $OLVER13 ITER    2:     *** CONVERGED *** , MAX ERR/TOL    -0.73140        TIME =    309.91

      GENERATING RESULTS FOR UOS BLOCK SOL-COOL MODEL: HEATER                     TIME =    309.91

      GENERATING RESULTS FOR UOS BLOCK SOL-HEX  MODEL: HEATX                      TIME =    309.91
      SPECIFICATION: COLD TEMP CHANGE      40.000    
      FLOW TYPE:     COUNTERCURRENT  
      HOT:  TIN=  398.32  PIN=0.21000E+06   TOUT=  358.55  POUT=0.21000E+06
      COLD: TIN=  329.32  PIN=0.21000E+06   TOUT=  369.32  POUT=0.21000E+06
      AREA= 377.34           DUTY=0.91134E+07       FT=1.00000

      BEGIN HEATX TQ-CURVE CALCULATIONS FOR BLOCK SOL-HEX 

      BEGIN COLD-TQCURVE INLET   
      H-LOOP : NTRIAL =   6 IFLAG = 1 VAR = 3.567148E-03
      KODE = 1  NTRIAL =   8  T =  369.325      P =  210000.      V = 3.567148E-03  Q =  0.00000    
      H-LOOP : NTRIAL =   6 IFLAG = 2 VAR =  367.922    
      KODE = 1  NTRIAL =   2  T =  367.922      P =  210000.      V = 2.725058E-03  Q =  0.00000    
      H-LOOP : NTRIAL =   4 IFLAG = 2 VAR =  366.481    
      KODE = 1  NTRIAL =   2  T =  366.481      P =  210000.      V = 1.934301E-03  Q =  0.00000    
      H-LOOP : NTRIAL =   4 IFLAG = 2 VAR =  365.004    
      KODE = 1  NTRIAL =   2  T =  365.004      P =  210000.      V = 1.192530E-03  Q =  0.00000    
      H-LOOP : NTRIAL =   5 IFLAG = 2 VAR =  363.485    
      KODE = 1  NTRIAL =   2  T =  363.485      P =  210000.      V = 5.070275E-04  Q =  0.00000    
      H-LOOP : NTRIAL =   5 IFLAG = 2 VAR =  361.799    
      KODE = 1  NTRIAL =   2  T =  361.799      P =  210000.      V = 6.423278E-05  Q =  0.00000    
      H-LOOP : NTRIAL =   5 IFLAG = 2 VAR =  359.847    
      KODE = 1  NTRIAL =   2  T =  359.847      P =  210000.      V = 1.498139E-05  Q =  0.00000    
      H-LOOP : NTRIAL =   4 IFLAG = 2 VAR =  357.861    
      KODE = 1  NTRIAL =   2  T =  357.861      P =  210000.      V = 5.960151E-06  Q =  0.00000    
      H-LOOP : NTRIAL =   7 IFLAG = 1 VAR = 2.361782E-06
      KODE = 1  NTRIAL =   3  T =  355.864      P =  210000.      V = 2.361782E-06  Q =  0.00000    
      H-LOOP : NTRIAL =  11 IFLAG = 1 VAR = 4.561521E-07
      KODE = 1  NTRIAL =   2  T =  353.859      P =  210000.      V = 4.561521E-07  Q =  0.00000    
      H-LOOP : NTRIAL =   4 IFLAG = 2 VAR =  351.846    
      KODE = 1  NTRIAL =   1  T =  351.846      P =  210000.      V =  0.00000      Q =  0.00000    
      KODE = 3  NTRIAL =   6  T =  353.174      P =  210000.      V =  0.00000      Q =-4.053514E+06
      KODE = 1  NTRIAL =  19  T =  351.846      P =  210000.      V =  0.00000      Q =  0.00000    
      KODE = 1  NTRIAL =  14  T =  349.826      P =  210000.      V =  0.00000      Q =  0.00000    
      KODE = 1  NTRIAL =  14  T =  347.800      P =  210000.      V =  0.00000      Q =  0.00000    
      KODE = 1  NTRIAL =   9  T =  345.768      P =  210000.      V =  0.00000      Q =  0.00000    
      KODE = 1  NTRIAL =  12  T =  343.731      P =  210000.      V =  0.00000      Q =  0.00000    
      KODE = 1  NTRIAL =  11  T =  341.687      P =  210000.      V =  0.00000      Q =  0.00000    
      KODE = 1  NTRIAL =  11  T =  339.639      P =  210000.      V =  0.00000      Q =  0.00000    
      KODE = 1  NTRIAL =  11  T =  337.586      P =  210000.      V =  0.00000      Q =  0.00000    
      KODE = 1  NTRIAL =  11  T =  335.527      P =  210000.      V =  0.00000      Q =  0.00000    
      KODE = 1  NTRIAL =  11  T =  333.464      P =  210000.      V =  0.00000      Q =  0.00000    
      KODE = 1  NTRIAL =   9  T =  331.397      P =  210000.      V =  0.00000      Q =  0.00000    
      KODE = 1  NTRIAL =  11  T =  329.325      P =  210000.      V =  0.00000      Q =  0.00000    

      BEGIN HOT-TQCURVE  INLET   
      KODE = 1  NTRIAL =  11  T =  398.323      P =  210000.      V =  0.00000      Q =  0.00000    
      KODE = 1  NTRIAL =   6  T =  396.482      P =  210000.      V =  0.00000      Q =  0.00000    
      KODE = 1  NTRIAL =   6  T =  394.616      P =  210000.      V =  0.00000      Q =  0.00000    
      KODE = 1  NTRIAL =   6  T =  392.765      P =  210000.      V =  0.00000      Q =  0.00000    
      KODE = 1  NTRIAL =   6  T =  390.908      P =  210000.      V =  0.00000      Q =  0.00000    
      KODE = 1  NTRIAL =   6  T =  389.045      P =  210000.      V =  0.00000      Q =  0.00000    
      KODE = 1  NTRIAL =   6  T =  387.176      P =  210000.      V =  0.00000      Q =  0.00000    
      KODE = 1  NTRIAL =   6  T =  385.302      P =  210000.      V =  0.00000      Q =  0.00000    
      KODE = 1  NTRIAL =   6  T =  383.423      P =  210000.      V =  0.00000      Q =  0.00000    
      KODE = 1  NTRIAL =   6  T =  381.538      P =  210000.      V =  0.00000      Q =  0.00000    
      KODE = 1  NTRIAL =   5  T =  380.895      P =  210000.      V =  0.00000      Q =  0.00000    
      KODE = 1  NTRIAL =   5  T =  379.647      P =  210000.      V =  0.00000      Q =  0.00000    
      KODE = 1  NTRIAL =   5  T =  377.752      P =  210000.      V =  0.00000      Q =  0.00000    
      KODE = 1  NTRIAL =   5  T =  375.852      P =  210000.      V =  0.00000      Q =  0.00000    
      KODE = 1  NTRIAL =   5  T =  373.948      P =  210000.      V =  0.00000      Q =  0.00000    
      KODE = 1  NTRIAL =   5  T =  372.038      P =  210000.      V =  0.00000      Q =  0.00000    
      KODE = 1  NTRIAL =   5  T =  370.124      P =  210000.      V =  0.00000      Q =  0.00000    
      KODE = 1  NTRIAL =   5  T =  368.206      P =  210000.      V =  0.00000      Q =  0.00000    
      KODE = 1  NTRIAL =   5  T =  366.283      P =  210000.      V =  0.00000      Q =  0.00000    
      KODE = 1  NTRIAL =   5  T =  364.356      P =  210000.      V =  0.00000      Q =  0.00000    
      KODE = 1  NTRIAL =   5  T =  362.424      P =  210000.      V =  0.00000      Q =  0.00000    
      KODE = 1  NTRIAL =   7  T =  360.490      P =  210000.      V =  0.00000      Q =  0.00000    
      KODE = 1  NTRIAL =   7  T =  358.550      P =  210000.      V =  0.00000      Q =  0.00000    

      BEGIN COLD-TQCURVE INLET   

      BEGIN HOT-TQCURVE  INLET   
      END HEATX TQ-CURVE CALCULATIONS FOR BLOCK SOL-HEX 

      GENERATING RESULTS FOR UOS BLOCK PUMP2    MODEL: PUMP                       TIME =    310.10
      KODE = 5  NTRIAL =   3  T =  398.314      P =  190000.      V =  0.00000      Q =  197.794    
      VOL-FLOW   =  0.8524E-01 , DELTA P    =  0.2000E+05 , PUMP EFF   =  0.7919    
      FLUID PWR  =   1705.     , BRAKE PWR  =   2153.     , ELEC PWR   =   2153.    
      NPSH AVAIL =   0.000    

      GENERATING RESULTS FOR UOS BLOCK PUMP1    MODEL: PUMP                       TIME =    310.11
      KODE = 5  NTRIAL =   3  T =  329.292      P =  112762.      V =  0.00000      Q = -112.056    
      VOL-FLOW   =  0.8058E-01 , DELTA P    =  0.9000E+05 , PUMP EFF   =  0.7881    
      FLUID PWR  =   7252.     , BRAKE PWR  =   9203.     , ELEC PWR   =   9203.    
      NPSH AVAIL =   5.870    

 Report Writer entered                                                            Time =    310.12

      BEGIN HEATX TQ-CURVE REPORT FOR BLOCK SOL-HEX 

      BEGIN COLD-TQCURVE INLET   

      BEGIN HOT-TQCURVE  INLET   
      END HEATX TQ-CURVE REPORT FOR BLOCK SOL-HEX 

      INFORMATION WHILE GENERATING REPORT FOR UNIT OPERATIONS BLOCK: "STRIPPER" 
      (MODEL: "RADFRAC")                                       (PCKWRT.8172)    
        112.97%   FLOOD IN COLUMN STRIPPER, OPTION INT-1   ,                    
      SECTION CS-1     EXCEEDS 80%.                                             

 Results generated                                                                Time =    310.29

RUN SAVED



 *** SUMMARY OF ERRORS ***

                  PHYSICAL
                  PROPERTY  SYSTEM  SIMULATION
 TERMINAL ERRORS      0        0         0
   SEVERE ERRORS      0        0         0
          ERRORS      0        0         0
        WARNINGS      0        0         2

 *** CALCULATION TRACE ***


<set objective = None>
